
  EPA STORM WATER MANAGEMENT MODEL - VERSION 5.2 (Build 5.2.4)
  ------------------------------------------------------------

  Proyecto de drenaje pluvial de la 
  localidad de Caviahue para calles Los Ã‘ires, 8 de abril y Quimey Co 
  WARNING 04: minimum elevation drop used for Conduit /Los_ï¿½ires_06_(Alc_03)
  WARNING 02: maximum depth increased for Node *Lï¿½02_09(Alc18_ar)
  WARNING 02: maximum depth increased for Node *Lï¿½03_01
  WARNING 02: maximum depth increased for Node *Lï¿½03_03
  WARNING 02: maximum depth increased for Node *Lï¿½03_C2_03
  WARNING 02: maximum depth increased for Node *Lï¿½03_C4_01
  WARNING 02: maximum depth increased for Node *Lï¿½03_C4_02
  WARNING 02: maximum depth increased for Node *Lï¿½03_C4_03
  WARNING 02: maximum depth increased for Node *Lï¿½03_C6_01
  WARNING 02: maximum depth increased for Node *Lï¿½03_C7_01
  WARNING 02: maximum depth increased for Node Jun-228
  WARNING 02: maximum depth increased for Node Jun-234
  WARNING 02: maximum depth increased for Node Jun-235
  WARNING 02: maximum depth increased for Node Jun-238
  WARNING 02: maximum depth increased for Node Jun-244
  WARNING 02: maximum depth increased for Node Jun-247
  WARNING 02: maximum depth increased for Node Jun-248
  WARNING 02: maximum depth increased for Node Jun-251
  WARNING 02: maximum depth increased for Node Jun-264
  WARNING 02: maximum depth increased for Node Jun-265
  WARNING 02: maximum depth increased for Node Jun-266
  WARNING 02: maximum depth increased for Node Jun-267
  WARNING 02: maximum depth increased for Node Jun-268
  WARNING 02: maximum depth increased for Node Jun-269
  WARNING 02: maximum depth increased for Node Jun-270
  WARNING 02: maximum depth increased for Node Jun-272
  WARNING 02: maximum depth increased for Node Jun-273
  WARNING 02: maximum depth increased for Node Jun-275
  WARNING 02: maximum depth increased for Node Jun-276
  WARNING 02: maximum depth increased for Node Jun-311
  WARNING 02: maximum depth increased for Node Jun-312
  WARNING 02: maximum depth increased for Node Jun-315
  WARNING 02: maximum depth increased for Node Jun-316
  WARNING 02: maximum depth increased for Node Jun-317
  WARNING 02: maximum depth increased for Node Jun-318
  WARNING 02: maximum depth increased for Node Jun-319
  WARNING 02: maximum depth increased for Node Jun-320
  WARNING 02: maximum depth increased for Node Jun-327
  WARNING 02: maximum depth increased for Node Jun-328
  WARNING 02: maximum depth increased for Node Jun-332
  WARNING 02: maximum depth increased for Node Jun-333
  WARNING 02: maximum depth increased for Node Jun-341
  WARNING 02: maximum depth increased for Node Jun-342
  WARNING 02: maximum depth increased for Node Jun-344
  WARNING 02: maximum depth increased for Node Jun-347
  WARNING 02: maximum depth increased for Node Jun-348
  WARNING 02: maximum depth increased for Node Jun-350
  WARNING 02: maximum depth increased for Node Jun-351
  WARNING 02: maximum depth increased for Node Jun-353
  WARNING 02: maximum depth increased for Node Jun-355
  WARNING 02: maximum depth increased for Node Jun-362
  WARNING 02: maximum depth increased for Node Jun-370
  
  *************
  Element Count
  *************
  Number of rain gages ...... 1
  Number of subcatchments ... 66
  Number of nodes ........... 146
  Number of links ........... 146
  Number of pollutants ...... 0
  Number of land uses ....... 0
  
  
  ****************
  Raingage Summary
  ****************
                                                      Data       Recording
  Name                 Data Source                    Type       Interval 
  ------------------------------------------------------------------------
  TD                   TR10-IDF-24h_Chos_Malal        CUMULATIVE  72 min.
  
  
  ********************
  Subcatchment Summary
  ********************
  Name                       Area     Width   %Imperv    %Slope Rain Gage            Outlet              
  -----------------------------------------------------------------------------------------------------------
  CR05b                      2.56    150.00     25.00   18.4500 TD                   Jun-276             
  CR06a                      3.71    315.36     29.00   20.8000 TD                   Jun-369             
  CR06b                      2.93    150.00     25.00   22.6600 TD                   CU_17               
  CR07                       3.45   1033.91     24.00   14.1300 TD                   CU_24               
  CU_01                      0.26    110.00     20.00    2.2500 TD                   *Lï¿½_01            
  CU_02                      0.25     90.00     25.00    1.3500 TD                   *Lï¿½03_C2_03       
  CU_03                      0.22    105.00     19.00    2.4300 TD                   Jun-353             
  CU_04                      0.48    200.00     35.00    1.0300 TD                   *Lï¿½05             
  CU_05                      0.34    135.00     25.00    1.2200 TD                   *Lï¿½03_02          
  CU_06                      0.55     89.79     10.00    1.5800 TD                   Jun-228             
  CU_07                      0.29     75.00     19.00    2.0300 TD                   Jun-275             
  CU_08                      0.28    100.00     29.00    0.4600 TD                   *Lï¿½08             
  CU_09                      0.17     80.00     30.00    1.7800 TD                   Jun-359             
  CU_10                      0.25    100.00     25.00    1.8400 TD                   Jun-272             
  CU_11                      0.53    140.00     25.00    3.3700 TD                   *Lï¿½03_C4_01       
  CU_12                      0.26     75.00     29.00    0.4600 TD                   *Lï¿½11             
  CU_13                      0.16     80.00     20.00    0.8000 TD                   Jun-263             
  CU_14                      0.32    120.00     25.00    0.7000 TD                   *Lï¿½03_C7_01       
  CU_15                      0.30    150.00     25.00    1.0900 TD                   *Lï¿½03_C6_01       
  CU_16                      0.25    150.00     25.00    1.9000 TD                   Jun-238             
  CU_17                      0.67    200.00     20.00    2.3700 TD                   Jun-234             
  CU_18                      0.24     80.00     29.00    1.4500 TD                   Jun-237             
  CU_19                      0.44    120.00     20.00    1.6300 TD                   Jun-269             
  CU_20                      0.42    150.00     25.00    1.0700 TD                   Jun-249             
  CU_21                      0.22     80.00     26.00    1.8600 TD                   Jun-248             
  CU_22                      0.25    100.00     15.00    2.4500 TD                   Jun-244             
  CU_23                      0.25    100.00     15.00    1.6400 TD                   Jun-267             
  CU_24                      1.70    150.00     15.00    2.2300 TD                   *Lï¿½02_01          
  CU_25                      0.41    150.00     25.00    0.5000 TD                   *Lï¿½22             
  CU_26                      0.23     80.00     29.00    0.7900 TD                   *Lï¿½03_05          
  CU_27                      0.58    180.00     19.00    0.6200 TD                   Jun-251             
  CU_28                      0.36     34.08     25.00    1.5000 TD                   Jun-266             
  CU_29                      0.23    150.00     35.00    0.5000 TD                   *Lï¿½02_06          
  CU_30                      0.30    105.00     19.00    1.7900 TD                   *Lï¿½02_03(Alc16_ab)
  CU_31                      1.00    150.00     15.00    2.2500 TD                   *Lï¿½02_02(Alc16_ar)
  CU_32                      0.71     80.00     19.00    1.5100 TD                   Jun-361             
  CU_33                      0.76    150.00     25.00    0.5000 TD                   *Lï¿½27             
  CU_34                      0.61    150.00     25.00    0.5000 TD                   *Lï¿½31             
  CU_35                      0.71    150.00     25.00    0.5000 TD                   *Lï¿½35             
  CU_36                      1.01    150.00     25.00    0.5000 TD                   *Lï¿½36             
  CU_37                      0.61    150.00     25.00    0.5000 TD                   *Lï¿½41             
  CU_38                      0.32     50.00     29.00    1.4100 TD                   Jun-311             
  CU_39                      0.23    105.00     30.00    1.2500 TD                   Jun-312             
  CU_40                      0.29     45.00     29.00    1.6000 TD                   Jun-312             
  CU_41                      0.46     65.00     20.00    1.1000 TD                   Jun-312             
  CU_42                      0.65    180.00     30.00    1.8700 TD                   Jun-347             
  CU_43                      0.88    150.00     29.00    1.4700 TD                   Jun-315             
  CU_44                      0.55     78.29     18.00    2.1400 TD                   Jun-351             
  CU_45                      2.10    180.00      8.00    2.7900 TD                   Jun-341             
  CU_46                      0.56    120.00     25.00    1.4700 TD                   Jun-350             
  CU_47                      0.31    100.00     19.00    1.0500 TD                   Jun-317             
  CU_48                      0.75    150.00     28.00    1.3500 TD                   Jun-317             
  CU_49                      0.76    150.00     25.00    0.5000 TD                   Jun-342             
  CU_50                      0.53    147.00     15.00    0.7400 TD                   Jun-370             
  CU_51                      0.97     85.00     17.00    0.9400 TD                   Jun-318             
  CU_52                      1.16    240.00      5.00    0.5000 TD                   Jun-336             
  CU_53                      0.53    150.00     25.00    0.5000 TD                   CU_52               
  CU_54                      0.28    160.00      5.00    0.5400 TD                   Jun-344             
  CU_55                      0.58    150.00      5.00    0.2800 TD                   Jun-348             
  CU_57                      0.15    110.00      5.00    0.5000 TD                   Jun-331             
  CU_58                      0.16    110.00      5.00    0.5000 TD                   Jun-329             
  CU_59                      0.52    150.00     15.00    0.4800 TD                   Jun-326             
  CU_60                      0.33     75.00     19.00    0.6400 TD                   *Lï¿½17             
  CU_61                      0.42     70.00     15.00    0.7100 TD                   *Lï¿½19             
  CU_62                      0.13     80.00     30.00    0.1800 TD                   *Lï¿½03_04          
  CU_63                      0.17    150.00     25.00    0.5000 TD                   Jun-354             
  
  
  ************
  Node Summary
  ************
                                           Invert      Max.    Ponded    External
  Name                 Type                 Elev.     Depth      Area    Inflow  
  -------------------------------------------------------------------------------
  *Lï¿½_01             JUNCTION           1637.85      1.00       0.0
  *Lï¿½_02             JUNCTION           1637.82      2.70       0.0
  *Lï¿½01_07(Alc03_ab) JUNCTION           1637.36      0.80       0.0
  *Lï¿½012             JUNCTION           1637.16      1.00       0.0
  *Lï¿½02_01           JUNCTION           1639.72      2.00       0.0
  *Lï¿½02_02(Alc16_ar) JUNCTION           1636.38      2.00       0.0
  *Lï¿½02_03(Alc16_ab) JUNCTION           1636.28      0.80       0.0
  *Lï¿½02_04(Alc17_ar) JUNCTION           1635.67      2.00       0.0
  *Lï¿½02_05(Alc17_ab) JUNCTION           1635.69      0.80       0.0
  *Lï¿½02_06           JUNCTION           1635.58      0.50       0.0
  *Lï¿½02_07           JUNCTION           1635.41      0.70       0.0
  *Lï¿½02_09(Alc18_ar) JUNCTION           1634.97      0.90       0.0
  *Lï¿½02_10(Alc18_ab) JUNCTION           1635.00      0.90       0.0
  *Lï¿½03              JUNCTION           1638.18      1.00       0.0
  *Lï¿½03_01           JUNCTION           1639.05      2.00       0.0
  *Lï¿½03_02           JUNCTION           1638.85      1.00       0.0
  *Lï¿½03_03           JUNCTION           1638.48      2.00       0.0
  *Lï¿½03_04           JUNCTION           1637.44      1.00       0.0
  *Lï¿½03_05           JUNCTION           1636.91      1.00       0.0
  *Lï¿½03_C2_03        JUNCTION           1640.01      2.00       0.0
  *Lï¿½03_C4_01        JUNCTION           1641.83      2.00       0.0
  *Lï¿½03_C4_02        JUNCTION           1641.01      2.00       0.0
  *Lï¿½03_C4_03        JUNCTION           1639.81      2.00       0.0
  *Lï¿½03_C6_01        JUNCTION           1639.87      2.00       0.0
  *Lï¿½03_C7_01        JUNCTION           1639.23      2.00       0.0
  *Lï¿½04              JUNCTION           1637.97      1.00       0.0
  *Lï¿½05              JUNCTION           1637.87      0.95       0.0
  *Lï¿½06              JUNCTION           1637.81      0.74       0.0
  *Lï¿½07              JUNCTION           1637.36      0.80       0.0
  *Lï¿½08              JUNCTION           1637.30      0.90       0.0
  *Lï¿½09              JUNCTION           1637.16      0.90       0.0
  *Lï¿½11              JUNCTION           1637.23      1.00       0.0
  *Lï¿½13              JUNCTION           1637.00      0.90       0.0
  *Lï¿½14              JUNCTION           1637.01      0.90       0.0
  *Lï¿½15              JUNCTION           1637.06      1.00       0.0
  *Lï¿½16              JUNCTION           1637.07      1.00       0.0
  *Lï¿½17              JUNCTION           1636.79      0.90       0.0
  *Lï¿½18              JUNCTION           1636.65      0.90       0.0
  *Lï¿½19              JUNCTION           1636.19      0.89       0.0
  *Lï¿½20              JUNCTION           1636.10      0.80       0.0
  *Lï¿½21              JUNCTION           1635.29      0.80       0.0
  *Lï¿½22              JUNCTION           1635.06      0.80       0.0
  *Lï¿½23              JUNCTION           1634.95      1.52       0.0
  *Lï¿½24              JUNCTION           1634.69      1.52       0.0
  *Lï¿½25              JUNCTION           1634.65      1.52       0.0
  *Lï¿½26              JUNCTION           1634.46      0.42       0.0
  *Lï¿½27              JUNCTION           1634.36      0.42       0.0
  *Lï¿½28              JUNCTION           1634.25      0.75       0.0
  *Lï¿½29              JUNCTION           1634.30      0.75       0.0
  *Lï¿½30              JUNCTION           1634.17      0.42       0.0
  *Lï¿½31              JUNCTION           1634.15      0.50       0.0
  *Lï¿½32              JUNCTION           1634.05      0.50       0.0
  *Lï¿½34              JUNCTION           1634.00      0.60       0.0
  *Lï¿½35              JUNCTION           1633.74      0.60       0.0
  *Lï¿½36              JUNCTION           1633.62      0.80       0.0
  *Lï¿½37              JUNCTION           1633.73      0.80       0.0
  *Lï¿½39              JUNCTION           1633.71      0.36       0.0
  *Lï¿½40              JUNCTION           1633.44      1.09       0.0
  *Lï¿½41              JUNCTION           1633.16      1.09       0.0
  *Lï¿½42              JUNCTION           1632.53      1.09       0.0
  *Lï¿½43              JUNCTION           1632.38      1.09       0.0
  *ZN01_33             JUNCTION           1637.69      2.70       0.0
  *ZN01_34             JUNCTION           1637.63      2.70       0.0
  *ZN01_35             JUNCTION           1637.57      2.70       0.0
  *ZN01_36             JUNCTION           1637.45      2.20       0.0
  *ZS01_01(Alc01_ar)   JUNCTION           1633.11      1.00       0.0
  *ZS01_02(Alc01_ab)   JUNCTION           1632.98      2.00       0.0
  *ZS02_01(Alc02_ar)   JUNCTION           1634.14      1.00       0.0
  Jun-228              JUNCTION           1639.90      2.00       0.0
  Jun-234              JUNCTION           1641.83      2.00       0.0
  Jun-235              JUNCTION           1641.55      2.00       0.0
  Jun-237              JUNCTION           1639.23      1.00       0.0
  Jun-238              JUNCTION           1641.83      2.00       0.0
  Jun-244              JUNCTION           1639.77      2.00       0.0
  Jun-247              JUNCTION           1638.82      2.00       0.0
  Jun-248              JUNCTION           1638.86      2.00       0.0
  Jun-249              JUNCTION           1638.88      1.00       0.0
  Jun-251              JUNCTION           1637.29      2.00       0.0
  Jun-263              JUNCTION           1638.22      0.40       0.0
  Jun-264              JUNCTION           1638.68      2.00       0.0
  Jun-265              JUNCTION           1640.89      2.00       0.0
  Jun-266              JUNCTION           1637.48      2.00       0.0
  Jun-267              JUNCTION           1641.52      2.00       0.0
  Jun-268              JUNCTION           1639.87      2.00       0.0
  Jun-269              JUNCTION           1639.87      2.00       0.0
  Jun-270              JUNCTION           1638.47      2.00       0.0
  Jun-272              JUNCTION           1640.42      2.00       0.0
  Jun-273              JUNCTION           1638.87      2.00       0.0
  Jun-275              JUNCTION           1641.01      2.00       0.0
  Jun-276              JUNCTION           1640.99      2.00       0.0
  Jun-311              JUNCTION           1641.64      2.00       0.0
  Jun-312              JUNCTION           1640.07      2.00       0.0
  Jun-315              JUNCTION           1638.98      2.00       0.0
  Jun-316              JUNCTION           1637.39      2.00       0.0
  Jun-317              JUNCTION           1635.99      2.00       0.0
  Jun-318              JUNCTION           1634.97      2.00       0.0
  Jun-319              JUNCTION           1634.72      2.00       0.0
  Jun-320              JUNCTION           1634.46      2.00       0.0
  Jun-321              JUNCTION           1634.26      1.00       0.0
  Jun-322              JUNCTION           1634.25      1.00       0.0
  Jun-323              JUNCTION           1634.27      1.00       0.0
  Jun-324              JUNCTION           1634.43      1.00       0.0
  Jun-325              JUNCTION           1634.30      1.00       0.0
  Jun-326              JUNCTION           1634.43      1.00       0.0
  Jun-327              JUNCTION           1634.49      2.00       0.0
  Jun-328              JUNCTION           1634.22      2.00       0.0
  Jun-329              JUNCTION           1634.14      1.00       0.0
  Jun-330              JUNCTION           1634.35      1.00       0.0
  Jun-331              JUNCTION           1634.09      1.00       0.0
  Jun-332              JUNCTION           1634.13      2.00       0.0
  Jun-333              JUNCTION           1633.16      2.00       0.0
  Jun-334              JUNCTION           1633.80      1.00       0.0
  Jun-335              JUNCTION           1633.65      1.00       0.0
  Jun-336              JUNCTION           1633.52      1.00       0.0
  Jun-337              JUNCTION           1633.43      1.00       0.0
  Jun-338              JUNCTION           1633.39      1.00       0.0
  Jun-339              JUNCTION           1633.38      1.00       0.0
  Jun-340              JUNCTION           1633.29      1.00       0.0
  Jun-341              JUNCTION           1637.20      2.00       0.0
  Jun-342              JUNCTION           1634.95      2.00       0.0
  Jun-344              JUNCTION           1634.86      2.00       0.0
  Jun-347              JUNCTION           1639.19      2.00       0.0
  Jun-348              JUNCTION           1634.81      2.00       0.0
  Jun-350              JUNCTION           1636.14      2.00       0.0
  Jun-351              JUNCTION           1639.12      2.00       0.0
  Jun-353              JUNCTION           1640.61      2.00       0.0
  Jun-354              JUNCTION              0.00      1.00       0.0
  Jun-355              JUNCTION           1639.00      2.00       0.0
  Jun-356              JUNCTION           1640.80      0.30       0.0
  Jun-357              JUNCTION           1640.53      1.00       0.0
  Jun-358              JUNCTION           1639.50      1.00       0.0
  Jun-359              JUNCTION           1639.26      1.00       0.0
  Jun-360              JUNCTION           1638.46      1.00       0.0
  Jun-361              JUNCTION           1642.51      1.00       0.0
  Jun-362              JUNCTION           1637.13      2.00       0.0
  Jun-363              JUNCTION           1636.02      1.00       0.0
  Jun-365              JUNCTION           1635.90      1.00       0.0
  Jun-366              JUNCTION           1635.81      1.00       0.0
  Jun-367              JUNCTION           1635.71      1.00       0.0
  Jun-368              JUNCTION           1635.64      1.00       0.0
  Jun-369              JUNCTION           1641.11      1.00       0.0
  Jun-370              JUNCTION           1634.87      2.00       0.0
  *Lï¿½01_44(salida)   OUTFALL            1631.64      0.43       0.0
  *ZN01_37(salida)     OUTFALL            1637.31      2.20       0.0
  *ZS01_03(salida)     OUTFALL            1633.22      2.00       0.0
  *ZS02_03             OUTFALL            1634.06      1.00       0.0
  
  
  ************
  Link Summary
  ************
  Name             From Node        To Node          Type            Length    %Slope Roughness
  ---------------------------------------------------------------------------------------------
  *Lï¿½02_10       *Lï¿½02_10(Alc18_ab) *Lï¿½23          CONDUIT            2.9    1.7244    0.0320
  /8_de_Abril_Norte_01 *Lï¿½02_02(Alc16_ar) *Lï¿½02_03(Alc16_ab) CONDUIT            7.0    1.4308    0.0150
  /8_de_Abril_Norte_02 *Lï¿½02_03(Alc16_ab) Jun-363          CONDUIT           12.8    2.0285    0.0320
  /8_de_Abril_Norte_03 *Lï¿½02_04(Alc17_ar) *Lï¿½02_05(Alc17_ab) CONDUIT            7.5   -0.2663    0.0150
  /8_de_Abril_Norte_04 *Lï¿½02_05(Alc17_ab) *Lï¿½02_06       CONDUIT            9.5    1.2026    0.0320
  /8_de_Abril_Norte_05 *Lï¿½02_06       Jun-367          CONDUIT            9.0   -1.4957    0.0320
  /8_de_Abril_Norte_06 *Lï¿½02_07       *Lï¿½02_09(Alc18_ar) CONDUIT            8.1    5.4536    0.0320
  /8_de_Abril_Norte_08 *Lï¿½02_09(Alc18_ar) *Lï¿½02_10(Alc18_ab) CONDUIT           16.4   -0.1834    0.0250
  /Baden_Los_ï¿½ires_01 *Lï¿½03_01       *Lï¿½03_02       CONDUIT           61.2    0.3303    0.0320
  /Baden_Los_Ñires_02 *Lï¿½03_02       *Lï¿½03_03       CONDUIT           63.4    0.5808    0.0320
  /Baden_Los_ï¿½ires_03 Jun-263          *Lï¿½03_04       CONDUIT           67.7    1.1529    0.0320
  /Baden_Los_ï¿½ires_04 *Lï¿½03_04       *Lï¿½03_05       CONDUIT           63.3    0.8373    0.0320
  /Baden_Los_ï¿½ires_05 *Lï¿½03_05       *Lï¿½02_09(Alc18_ar) CONDUIT           71.2    2.7238    0.0320
  /Cuenca_del_Trolope_01 Jun-265          Jun-353          CONDUIT           28.7    0.9757    0.0320
  /Cuenca_del_Trolope_02 *Lï¿½03_C2_03    *Lï¿½03_01       CONDUIT           64.7    1.4832    0.0320
  /El_Palenque_01  Jun-237          Jun-248          CONDUIT           48.0    0.7707    0.0320
  /El_Palenque_02  Jun-248          Jun-247          CONDUIT           68.4    0.0585    0.0320
  /La_Herradura_01 Jun-267          Jun-244          CONDUIT           74.2    2.3582    0.0320
  /Laguna_Escondida_01 *Lï¿½03_C4_02    Jun-272          CONDUIT           29.1    2.0272    0.0320
  /Laguna_Escondida_02 Jun-272          *Lï¿½03_C4_03    CONDUIT           41.2    1.4818    0.0320
  /Laguna_Escondida_03 *Lï¿½03_C4_03    Jun-355          CONDUIT           35.6    2.2772    0.0320
  /Las_Pampas_01   Jun-238          Jun-268          CONDUIT           68.8    2.8500    0.0320
  /Las_Pampas_02   Jun-268          Jun-237          CONDUIT           62.3    1.0280    0.0320
  /Las_Pampas_03   *Lï¿½03_C7_01    Jun-273          CONDUIT           47.4    0.7594    0.0320
  /Las_Pampas_04   Jun-273          Jun-264          CONDUIT           20.8    0.9122    0.0320
  /Las_Pampas_05   Jun-264          *Lï¿½03_03       CONDUIT            8.8    2.2863    0.0320
  /Los_ï¿½ires_00_(Alc_00) *Lï¿½_01         *Lï¿½_02         CONDUIT           16.3    0.1843    0.0320
  /Los_ï¿½ires_01  *Lï¿½_02         *Lï¿½03          CONDUIT            5.3   -6.8082    0.0500
  /Los_ï¿½ires_02_(Alc_01) *Lï¿½03          *Lï¿½04          CONDUIT           18.3    1.1495    0.0180
  /Los_ï¿½ires_03  *Lï¿½04          *Lï¿½05          CONDUIT           32.1    0.3112    0.0320
  /Los_ï¿½ires_04_(Alc_02) *Lï¿½05          *Lï¿½06          CONDUIT           29.6    0.2030    0.0180
  /Los_ï¿½ires_05  *Lï¿½06          *Lï¿½07          CONDUIT           54.9    0.8203    0.0320
  /Los_ï¿½ires_06_(Alc_03) *Lï¿½07          *Lï¿½01_07(Alc03_ab) CONDUIT            3.1    0.0098    0.0180
  /Los_ï¿½ires_07  *Lï¿½01_07(Alc03_ab) *Lï¿½08          CONDUIT           17.4    0.3456    0.0500
  /Los_ï¿½ires_08_(Alc_04) *Lï¿½08          *Lï¿½09          CONDUIT            9.0    1.5540    0.0180
  /Los_ï¿½ires_10  *Lï¿½09          *Lï¿½11          CONDUIT            7.1   -0.9901    0.0500
  /Los_ï¿½ires_11_(Alc_05) *Lï¿½11          *Lï¿½012         CONDUIT            7.8    0.9219    0.0240
  /Los_ï¿½ires_12  *Lï¿½012         *Lï¿½13          CONDUIT           12.8    1.2383    0.0500
  /Los_ï¿½ires_13_(Alc_06) *Lï¿½13          *Lï¿½14          CONDUIT            5.1   -0.1942    0.0300
  /Los_ï¿½ires_14  *Lï¿½14          *Lï¿½15          CONDUIT           10.4   -0.4817    0.0320
  /Los_ï¿½ires_15_(Alc_07) *Lï¿½15          *Lï¿½16          CONDUIT            8.1   -0.1229    0.0180
  /Los_ï¿½ires_16  *Lï¿½16          *Lï¿½17          CONDUIT           22.8    1.2298    0.0320
  /Los_ï¿½ires_17_(Alc_08) *Lï¿½17          *Lï¿½18          CONDUIT            6.2    2.2478    0.0150
  /Los_ï¿½ires_18  *Lï¿½18          *Lï¿½19          CONDUIT           58.3    0.7892    0.0500
  /Los_ï¿½ires_19_(Alc_09) *Lï¿½19          *Lï¿½20          CONDUIT            5.2    1.7310    0.0320
  /Los_ï¿½ires_20  *Lï¿½20          *Lï¿½21          CONDUIT           38.1    2.1253    0.0320
  /Los_ï¿½ires_21_(Alc_10) *Lï¿½21          *Lï¿½22          CONDUIT            9.7    2.3621    0.0250
  /Los_ï¿½ires_22  *Lï¿½22          *Lï¿½23          CONDUIT            8.6    1.2777    0.0320
  /Los_ï¿½ires_23  *Lï¿½23          *Lï¿½24          CONDUIT            6.9    3.7818    0.0500
  /Los_ï¿½ires_24  *Lï¿½24          *Lï¿½25          CONDUIT           37.0    0.1080    0.0500
  /Los_ï¿½ires_25  *Lï¿½25          *Lï¿½26          CONDUIT           46.5    0.4090    0.0500
  /Los_ï¿½ires_26  *Lï¿½26          *Lï¿½27          CONDUIT           34.1    0.2929    0.0500
  /Los_ï¿½ires_27  *Lï¿½27          *Lï¿½28          CONDUIT           26.9    0.4082    0.0500
  /Los_ï¿½ires_28_(Alc_11) *Lï¿½28          *Lï¿½29          CONDUIT            7.6   -0.6579    0.0150
  /Los_ï¿½ires_29  *Lï¿½29          *Lï¿½30          CONDUIT           15.5    0.8366    0.0500
  /Los_ï¿½ires_30  *Lï¿½30          *Lï¿½31          CONDUIT           13.3    0.1503    0.0500
  /Los_ï¿½ires_31_(Alc_12) *Lï¿½31          *Lï¿½32          CONDUIT            6.2    1.6210    0.0150
  /Los_ï¿½ires_32  *Lï¿½32          *Lï¿½34          CONDUIT           16.2    0.3086    0.0500
  /Los_ï¿½ires_34_(Alc_13) *Lï¿½34          *Lï¿½35          CONDUIT            6.8    3.8263    0.0150
  /Los_ï¿½ires_35  *Lï¿½35          *Lï¿½36          CONDUIT           35.1    0.3422    0.0500
  /Los_ï¿½ires_36_(Alc_14) *Lï¿½36          *Lï¿½37          CONDUIT            6.1   -1.7918    0.0150
  /Los_ï¿½ires_38  *Lï¿½37          *Lï¿½39          CONDUIT           24.8    0.0807    0.0500
  /Los_ï¿½ires_39  *Lï¿½39          *Lï¿½40          CONDUIT           38.8    0.6961    0.0500
  /Los_ï¿½ires_40(Alc_15) *Lï¿½40          *Lï¿½41          CONDUIT           12.8    2.1795    0.0320
  /Los_ï¿½ires_41  *Lï¿½41          *Lï¿½42          CONDUIT           29.6    2.1253    0.0320
  /Los_ï¿½ires_42  *Lï¿½42          *Lï¿½43          CONDUIT           83.8    0.1791    0.0500
  /Los_ï¿½ires_43  *Lï¿½43          *Lï¿½01_44(salida) CONDUIT           80.9    0.9152    0.0500
  /Piï¿½oneros_01  Jun-228          *Lï¿½03_C4_03    CONDUIT          114.1    0.0833    0.0320
  /Piï¿½oneros_02  *Lï¿½03_C6_01    *Lï¿½03_C4_03    CONDUIT           78.3    0.0766    0.0320
  /Piï¿½oneros_03  Jun-269          Jun-244          CONDUIT           87.6    0.1142    0.0320
  /Piï¿½oneros_04  Jun-244          Jun-247          CONDUIT           46.7    2.0329    0.0320
  /Piï¿½oneros_05  Jun-247          Jun-251          CONDUIT           92.5    1.6552    0.0320
  /Piï¿½oneros_06  Jun-251          *Lï¿½02_04(Alc17_ar) CONDUIT           54.0    3.0036    0.0320
  /Volcan_Copahue_05 Jun-276          Jun-265          CONDUIT           48.9    0.2002    0.0320
  /Volcan_Copahue_06 Jun-275          Jun-276          CONDUIT           41.4    0.0532    0.0320
  /Volcan_Copahue_08 Jun-234          Jun-235          CONDUIT          107.6    0.2603    0.0320
  /Volcan_Copahue_09 Jun-235          *Lï¿½02_01       CONDUIT          122.9    1.4891    0.0320
  /Volcan_Copahue_10 *Lï¿½02_01       Jun-270          CONDUIT           65.6    1.9070    0.0320
  /Volcan_Copahue_11 Jun-270          Jun-266          CONDUIT           38.8    2.5557    0.0320
  /Volcan_Copahue_12 Jun-266          Jun-362          CONDUIT           22.1    1.5825    0.0320
  /ZN01_32         *Lï¿½_02         *ZN01_33         CONDUIT           15.7    0.8259    0.0800
  /ZN01_33         *ZN01_33         *ZN01_34         CONDUIT           42.4    0.1414    0.0800
  /ZN01_34         *ZN01_34         *ZN01_35         CONDUIT           36.2    0.1738    0.0800
  /ZN01_35         *ZN01_35         *ZN01_36         CONDUIT           43.0    0.2676    0.0800
  /ZN01_36         *ZN01_36         *ZN01_37(salida) CONDUIT           40.1    0.3569    0.0800
  /ZS01_01(Alc01)  *ZS01_01(Alc01_ar) *ZS01_02(Alc01_ab) CONDUIT           11.8    1.1018    0.0150
  /ZS02_01(Alc02)  *ZS02_01(Alc02_ar) *ZS02_03         CONDUIT            9.5    0.8650    0.0150
  Link-256         Jun-249          *Lï¿½03_05       CONDUIT           93.8    2.1005    0.0320
  Link-345         *ZS01_02(Alc01_ab) *ZS01_03(salida) CONDUIT           18.1   -1.3124    0.0320
  Link-346         Jun-321          *ZS02_01(Alc02_ar) CONDUIT           16.2    0.7417    0.0320
  Link-347         Jun-322          Jun-321          CONDUIT            8.9   -0.1121    0.0150
  Link-348         Jun-323          Jun-322          CONDUIT           10.4    0.1921    0.0150
  Link-349         Jun-324          Jun-323          CONDUIT            9.6    1.6756    0.0150
  Link-350         Jun-325          Jun-324          CONDUIT            3.4   -3.7928    0.0320
  Link-351         Jun-326          Jun-325          CONDUIT           32.1    0.4044    0.0320
  Link-352         Jun-327          Jun-326          CONDUIT           25.4    0.2364    0.0320
  Link-353         Jun-327          Jun-328          CONDUIT           15.0    1.8015    0.0320
  Link-354         Jun-328          Jun-329          CONDUIT           32.2    0.2487    0.0320
  Link-355         Jun-329          Jun-330          CONDUIT           34.0   -0.6177    0.0320
  Link-356         Jun-330          Jun-331          CONDUIT           32.5    0.7990    0.0320
  Link-357         Jun-331          Jun-332          CONDUIT           24.9   -0.1610    0.0320
  Link-359         Jun-333          Jun-334          CONDUIT           42.2   -1.5160    0.0320
  Link-360         Jun-334          Jun-335          CONDUIT           25.7    0.5837    0.0320
  Link-361         Jun-335          Jun-336          CONDUIT           32.1    0.4046    0.0320
  Link-362         Jun-336          Jun-337          CONDUIT           24.6    0.3653    0.0320
  Link-363         Jun-337          Jun-338          CONDUIT           14.0    0.2859    0.0320
  Link-364         Jun-338          Jun-339          CONDUIT           11.1    0.0905    0.0320
  Link-365         Jun-339          Jun-340          CONDUIT           19.4    0.4646    0.0320
  Link-366         Jun-340          *ZS01_01(Alc01_ar) CONDUIT           22.4    0.8050    0.0320
  Link-367         Jun-312          Jun-347          CONDUIT          133.5    0.6593    0.0320
  Link-368         Jun-347          Jun-351          CONDUIT           17.6    0.3989    0.0320
  Link-369         Jun-341          Jun-342          CONDUIT          113.7    1.9786    0.0320
  Link-370         Jun-342          Jun-344          CONDUIT           41.5    0.2167    0.0320
  Link-371         Jun-344          Jun-348          CONDUIT           16.9    0.2966    0.0320
  Link-372         Jun-348          Jun-320          CONDUIT           42.4    0.8261    0.0320
  Link-375         Jun-317          Jun-318          CONDUIT           74.9    1.3619    0.0320
  Link-376         Jun-316          Jun-341          CONDUIT           48.4    0.3923    0.0320
  Link-377         Jun-316          Jun-350          CONDUIT           80.5    1.5539    0.0320
  Link-378         Jun-315          Jun-316          CONDUIT           65.5    2.4286    0.0320
  Link-379         Jun-350          Jun-317          CONDUIT           16.4    0.9158    0.0320
  Link-380         Jun-311          Jun-312          CONDUIT           71.9    2.1847    0.0320
  Link-381         Jun-351          Jun-316          CONDUIT           80.8    2.1413    0.0320
  Link-382         Jun-353          *Lï¿½03_C2_03    CONDUIT           37.4    1.6032    0.0320
  Link-383         Jun-247          Jun-266          CONDUIT           86.3    1.5535    0.0320
  Link-384         Jun-355          *Lï¿½03_03       CONDUIT           25.7    2.0230    0.0320
  Link-385         Jun-319          Jun-328          CONDUIT            8.7    5.7368    0.0320
  Link-386         Jun-361          *Lï¿½02_02(Alc16_ar) CONDUIT          158.8    3.8638    0.0320
  Link-387         Jun-356          Jun-357          CONDUIT           31.5    0.8572    0.0320
  Link-388         Jun-357          Jun-358          CONDUIT           61.1    1.6846    0.0320
  Link-389         Jun-358          Jun-359          CONDUIT           11.8    2.0430    0.0125
  Link-390         Jun-359          Jun-360          CONDUIT           58.4    1.3691    0.0320
  Link-391         Jun-362          *Lï¿½02_02(Alc16_ar) CONDUIT            9.9    7.6208    0.0320
  Link-392         Jun-363          Jun-365          CONDUIT           24.5    0.4896    0.0320
  Link-393         Jun-365          Jun-366          CONDUIT           27.3    0.3298    0.0320
  Link-394         Jun-366          *Lï¿½02_04(Alc17_ar) CONDUIT            2.8    4.9884    0.0320
  Link-395         Jun-367          Jun-368          CONDUIT            8.5    0.8245    0.0320
  Link-396         Jun-368          *Lï¿½02_07       CONDUIT           19.5    1.1784    0.0320
  Link-398         Jun-369          Jun-356          CONDUIT            4.6    6.7693    0.0125
  Link-399         Jun-318          Jun-370          CONDUIT           56.9    0.1759    0.0320
  Link-400         Jun-370          Jun-319          CONDUIT           42.8    0.3502    0.0320
  Link-401         Jun-320          Jun-333          CONDUIT            6.5   20.3798    0.0320
  Link-402         Jun-320          Jun-332          CONDUIT            5.0    6.6680    0.0320
  Link-403         Jun-319          Jun-327          CONDUIT            9.2    2.5062    0.0320
  1                Jun-360          Jun-263          CONDUIT            1.9   12.8020    0.0125
  2                *Lï¿½03_03       Jun-263          CONDUIT            3.6    7.2009    0.0320
  4                *Lï¿½03_C4_01    *Lï¿½03_C4_02    CONDUIT           86.8    0.9451    0.0320
  
  
  *********************
  Cross Section Summary
  *********************
                                        Full     Full     Hyd.     Max.   No. of     Full
  Conduit          Shape               Depth     Area     Rad.    Width  Barrels     Flow
  ---------------------------------------------------------------------------------------
  *Lï¿½02_10       RECT_OPEN            0.80     0.72     0.42     0.90        1     1.67
  /8_de_Abril_Norte_01 CIRCULAR             0.80     0.50     0.20     0.80        1     1.37
  /8_de_Abril_Norte_02 TRAPEZOIDAL          0.30     1.24     0.20     6.07        1     1.91
  /8_de_Abril_Norte_03 CIRCULAR             0.80     0.50     0.20     0.80        1     0.59
  /8_de_Abril_Norte_04 TRAPEZOIDAL          0.50     0.53     0.27     1.30        1     0.76
  /8_de_Abril_Norte_05 TRAPEZOIDAL          0.50     0.59     0.28     1.55        1     0.97
  /8_de_Abril_Norte_06 TRAPEZOIDAL          0.70     1.07     0.39     2.05        1     4.12
  /8_de_Abril_Norte_08 FILLED_CIRCULAR      0.45     0.32     0.14     0.90        1     0.15
  /Baden_Los_ï¿½ires_01 RECT_OPEN            0.30     0.21     0.21     0.70        1     0.13
  /Baden_Los_Ñires_02 RECT_OPEN            0.30     0.21     0.21     0.70        1     0.18
  /Baden_Los_ï¿½ires_03 TRAPEZOIDAL          0.40     0.28     0.20     0.90        1     0.32
  /Baden_Los_ï¿½ires_04 TRAPEZOIDAL          0.40     0.28     0.20     0.90        1     0.27
  /Baden_Los_ï¿½ires_05 TRAPEZOIDAL          0.40     0.28     0.20     0.90        1     0.50
  /Cuenca_del_Trolope_01 Calle7m              2.00    13.48     0.87     7.00        1    37.99
  /Cuenca_del_Trolope_02 Calle7m              2.00    13.48     0.87     7.00        1    46.84
  /El_Palenque_01  RECT_OPEN            1.00     1.00     0.50     1.00        1     1.73
  /El_Palenque_02  Calle7m              2.00    13.48     0.87     7.00        1     9.30
  /La_Herradura_01 Calle9m              2.00    17.28     1.04     9.00        1    85.02
  /Laguna_Escondida_01 Calle7m              2.00    13.48     0.87     7.00        1    54.76
  /Laguna_Escondida_02 Calle7m              2.00    13.48     0.87     7.00        1    46.82
  /Laguna_Escondida_03 Calle7m              2.00    13.48     0.87     7.00        1    58.04
  /Las_Pampas_01   Calle9m              2.00    17.28     1.04     9.00        1    93.46
  /Las_Pampas_02   RECT_OPEN            1.00     1.00     0.50     1.00        1     2.00
  /Las_Pampas_03   Calle9m              2.00    17.28     1.04     9.00        1    48.24
  /Las_Pampas_04   Calle9m              2.00    17.28     1.04     9.00        1    52.88
  /Las_Pampas_05   Calle9m              2.00    17.28     1.04     9.00        1    83.71
  /Los_ï¿½ires_00_(Alc_00) RECT_OPEN            1.00     1.00     0.50     1.00        1     0.85
  /Los_ï¿½ires_01  TRAPEZOIDAL          0.95     4.77     0.56     8.19        1    16.95
  /Los_ï¿½ires_02_(Alc_01) CIRCULAR             1.00     0.79     0.25     1.00        1     1.86
  /Los_ï¿½ires_03  TRAPEZOIDAL          0.95     4.77     0.56     8.19        1     5.66
  /Los_ï¿½ires_04_(Alc_02) RECT_CLOSED          0.70     0.39     0.15     0.55        1     0.28
  /Los_ï¿½ires_05  TRAPEZOIDAL          0.74     4.83     0.43    11.16        1     7.77
  /Los_ï¿½ires_06_(Alc_03) RECT_CLOSED          0.80     0.64     0.20     0.80        1     0.12
  /Los_ï¿½ires_07  TRAPEZOIDAL          0.74     4.83     0.43    11.16        1     3.23
  /Los_ï¿½ires_08_(Alc_04) CIRCULAR             0.90     0.64     0.23     0.90        1     1.63
  /Los_ï¿½ires_10  TRAPEZOIDAL          0.89     5.45     0.50    10.58        1     6.86
  /Los_ï¿½ires_11_(Alc_05) CIRCULAR             1.00     0.79     0.25     1.00        1     1.25
  /Los_ï¿½ires_12  TRAPEZOIDAL          0.89     5.41     0.50    10.49        1     7.63
  /Los_ï¿½ires_13_(Alc_06) CIRCULAR             0.90     0.64     0.23     0.90        1     0.35
  /Los_ï¿½ires_14  TRAPEZOIDAL          0.89     5.41     0.50    10.49        1     7.43
  /Los_ï¿½ires_15_(Alc_07) CIRCULAR             1.00     0.79     0.25     1.00        1     0.61
  /Los_ï¿½ires_16  TRAPEZOIDAL          0.89     5.41     0.50    10.49        1    11.87
  /Los_ï¿½ires_17_(Alc_08) FILLED_CIRCULAR      0.63     0.48     0.18     0.90        1     1.50
  /Los_ï¿½ires_18  TRAPEZOIDAL          0.89     5.41     0.50    10.49        1     6.09
  /Los_ï¿½ires_19_(Alc_09) TRAPEZOIDAL          0.80     2.16     0.53     3.10        1     5.80
  /Los_ï¿½ires_20  TRAPEZOIDAL          0.80     3.59     0.47     7.45        1     9.88
  /Los_ï¿½ires_21_(Alc_10) FILLED_CIRCULAR      0.48     0.24     0.13     0.60        1     0.38
  /Los_ï¿½ires_22  TRAPEZOIDAL          0.80     3.60     0.47     7.46        1     7.69
  /Los_ï¿½ires_23  TRAPEZOIDAL          1.52     6.25     0.86     6.32        1    21.99
  /Los_ï¿½ires_24  TRAPEZOIDAL          1.52     6.25     0.86     6.32        1     3.72
  /Los_ï¿½ires_25  TRAPEZOIDAL          0.42     2.02     0.33     6.03        1     1.23
  /Los_ï¿½ires_26  TRAPEZOIDAL          0.42     2.02     0.33     6.03        1     1.04
  /Los_ï¿½ires_27  TRAPEZOIDAL          0.42     2.02     0.33     6.03        1     1.22
  /Los_ï¿½ires_28_(Alc_11) FILLED_CIRCULAR      0.68     0.42     0.17     0.75        1     0.70
  /Los_ï¿½ires_29  TRAPEZOIDAL          0.42     2.02     0.33     6.03        1     1.75
  /Los_ï¿½ires_30  TRAPEZOIDAL          0.42     2.02     0.33     6.03        1     0.74
  /Los_ï¿½ires_31_(Alc_12) CIRCULAR             0.50     0.20     0.12     0.50        1     0.42
  /Los_ï¿½ires_32  TRAPEZOIDAL          0.27     0.67     0.19     3.34        1     0.25
  /Los_ï¿½ires_34_(Alc_13) CIRCULAR             0.60     0.28     0.15     0.60        1     1.04
  /Los_ï¿½ires_35  TRAPEZOIDAL          0.27     0.67     0.19     3.34        1     0.26
  /Los_ï¿½ires_36_(Alc_14) CIRCULAR             0.80     0.50     0.20     0.80        1     1.53
  /Los_ï¿½ires_38  TRAPEZOIDAL          0.36     1.16     0.27     4.09        1     0.28
  /Los_ï¿½ires_39  TRAPEZOIDAL          0.36     1.16     0.27     4.09        1     0.82
  /Los_ï¿½ires_40(Alc_15) TRAPEZOIDAL          1.09     8.44     0.64    12.99        1    28.88
  /Los_ï¿½ires_41  TRAPEZOIDAL          1.09     8.44     0.64    12.98        1    28.50
  /Los_ï¿½ires_42  TRAPEZOIDAL          1.09     8.44     0.64    12.98        1     5.29
  /Los_ï¿½ires_43  TRAPEZOIDAL          0.43     1.81     0.29     6.16        1     1.51
  /Piï¿½oneros_01  Calle7m              2.00    13.48     0.87     7.00        1    11.10
  /Piï¿½oneros_02  Calle9m              2.00    17.28     1.04     9.00        1    15.32
  /Piï¿½oneros_03  Calle9m              2.00    17.28     1.04     9.00        1    18.71
  /Piï¿½oneros_04  Calle9m              2.00    17.28     1.04     9.00        1    78.94
  /Piï¿½oneros_05  Calle9m              2.00    17.28     1.04     9.00        1    71.23
  /Piï¿½oneros_06  Calle9m              2.00    17.28     1.04     9.00        1    95.95
  /Volcan_Copahue_05 Calle9m              2.00    17.28     1.04     9.00        1    24.77
  /Volcan_Copahue_06 Calle9m              2.00    17.28     1.04     9.00        1    12.77
  /Volcan_Copahue_08 Calle9m              2.00    17.28     1.04     9.00        1    28.25
  /Volcan_Copahue_09 Calle9m              2.00    17.28     1.04     9.00        1    67.56
  /Volcan_Copahue_10 Calle9m              2.00    17.28     1.04     9.00        1    76.45
  /Volcan_Copahue_11 Calle9m              2.00    17.28     1.04     9.00        1    88.50
  /Volcan_Copahue_12 Calle9m              2.00    17.28     1.04     9.00        1    69.64
  /ZN01_32         TRAPEZOIDAL          2.70    16.53     1.32    11.12        1    22.64
  /ZN01_33         TRAPEZOIDAL          2.70    16.53     1.32    11.12        1     9.37
  /ZN01_34         TRAPEZOIDAL          2.70    16.53     1.32    11.12        1    10.39
  /ZN01_35         TRAPEZOIDAL          2.20    11.88     1.10     9.80        1     8.17
  /ZN01_36         TRAPEZOIDAL          2.20    11.88     1.10     9.80        1     9.43
  /ZS01_01(Alc01)  CIRCULAR             1.00     0.79     0.25     1.00        1     2.18
  /ZS02_01(Alc02)  CIRCULAR             1.00     0.79     0.25     1.00        1     1.93
  Link-256         RECT_OPEN            1.00     1.00     0.50     1.00        1     2.85
  Link-345         TRAPEZOIDAL          2.00     8.00     1.04     6.00        1    29.49
  Link-346         TRAPEZOIDAL          1.00     8.00     0.70    11.00        1    17.05
  Link-347         RECT_OPEN            0.80     0.40     0.31     0.50        1     0.41
  Link-348         RECT_OPEN            0.80     0.40     0.31     0.50        1     0.53
  Link-349         CIRCULAR             1.00     0.79     0.25     1.00        1     2.69
  Link-350         TRAPEZOIDAL          0.40     1.60     0.31     5.00        1     4.46
  Link-351         TRAPEZOIDAL          0.50     2.88     0.40     7.00        1     3.10
  Link-352         TRAPEZOIDAL          0.50     2.88     0.40     7.00        1     2.37
  Link-353         RECT_OPEN            1.00     1.00     0.50     1.00        1     2.64
  Link-354         TRAPEZOIDAL          0.50     2.88     0.40     7.00        1     2.43
  Link-355         TRAPEZOIDAL          0.50     2.88     0.40     7.00        1     3.83
  Link-356         TRAPEZOIDAL          0.50     2.88     0.40     7.00        1     4.36
  Link-357         TRAPEZOIDAL          0.50     2.88     0.40     7.00        1     1.96
  Link-359         TRAPEZOIDAL          0.50     2.88     0.40     7.00        1     6.00
  Link-360         TRAPEZOIDAL          0.50     2.88     0.40     7.00        1     3.72
  Link-361         TRAPEZOIDAL          0.50     2.88     0.40     7.00        1     3.10
  Link-362         TRAPEZOIDAL          0.50     2.88     0.40     7.00        1     2.95
  Link-363         TRAPEZOIDAL          0.50     2.88     0.40     7.00        1     2.61
  Link-364         TRAPEZOIDAL          0.50     2.88     0.40     7.00        1     1.47
  Link-365         TRAPEZOIDAL          0.50     2.88     0.40     7.00        1     3.32
  Link-366         TRAPEZOIDAL          0.50     2.88     0.40     7.00        1     4.37
  Link-367         Calle9m              2.00    17.28     1.04     9.00        1    44.95
  Link-368         Calle9m              2.00    17.28     1.04     9.00        1    34.96
  Link-369         Calle9m              2.00    17.28     1.04     9.00        1    77.87
  Link-370         Calle9m              2.00    17.28     1.04     9.00        1    25.77
  Link-371         Calle9m              2.00    17.28     1.04     9.00        1    30.15
  Link-372         Calle9m              2.00    17.28     1.04     9.00        1    50.32
  Link-375         Calle9m              2.00    17.28     1.04     9.00        1    64.61
  Link-376         Calle9m              2.00    17.28     1.04     9.00        1    34.68
  Link-377         Calle9m              2.00    17.28     1.04     9.00        1    69.01
  Link-378         Calle9m              2.00    17.28     1.04     9.00        1    86.28
  Link-379         Calle9m              2.00    17.28     1.04     9.00        1    52.98
  Link-380         Calle7m              2.00    13.48     0.87     7.00        1    56.85
  Link-381         Calle9m              2.00    17.28     1.04     9.00        1    81.01
  Link-382         Calle7m              2.00    13.48     0.87     7.00        1    48.70
  Link-383         Calle9m              2.00    17.28     1.04     9.00        1    69.00
  Link-384         Calle7m              2.00    13.48     0.87     7.00        1    54.71
  Link-385         Calle9m              2.00    17.28     1.04     9.00        1   132.60
  Link-386         TRAPEZOIDAL          0.40     0.36     0.22     1.30        1     0.81
  Link-387         TRAPEZOIDAL          0.30     0.21     0.17     1.00        1     0.19
  Link-388         RECT_OPEN            0.30     0.12     0.17     0.40        1     0.15
  Link-389         CIRCULAR             0.30     0.07     0.07     0.30        1     0.14
  Link-390         RECT_OPEN            0.30     0.12     0.17     0.40        1     0.14
  Link-391         Calle9m              2.00    17.28     1.04     9.00        1   152.83
  Link-392         TRAPEZOIDAL          0.30     1.20     0.21     5.80        1     0.91
  Link-393         TRAPEZOIDAL          0.30     1.24     0.20     6.07        1     0.77
  Link-394         TRAPEZOIDAL          0.30     1.24     0.20     6.07        1     2.99
  Link-395         TRAPEZOIDAL          0.50     0.59     0.28     1.55        1     0.72
  Link-396         TRAPEZOIDAL          0.70     1.42     0.43     2.55        1     2.75
  Link-398         CIRCULAR             0.15     0.02     0.04     0.15        3     0.04
  Link-399         Calle9m              2.00    17.28     1.04     9.00        1    23.22
  Link-400         Calle9m              2.00    17.28     1.04     9.00        1    32.76
  Link-401         Calle7m              2.00    13.48     0.87     7.00        1   173.64
  Link-402         Calle7m              2.00    13.48     0.87     7.00        1    99.32
  Link-403         Calle9m              2.00    17.28     1.04     9.00        1    87.64
  1                CIRCULAR             0.30     0.07     0.07     0.30        2     0.36
  2                TRAPEZOIDAL          0.20     0.22     0.15     1.20        1     0.53
  4                Calle7m              2.00    13.48     0.87     7.00        1    37.39
  
  
  ****************
  Transect Summary
  ****************

  Transect Calle7m
  Area:  
              0.0033     0.0132     0.0278     0.0442     0.0649 
              0.0857     0.1065     0.1273     0.1481     0.1688 
              0.1896     0.2104     0.2312     0.2519     0.2727 
              0.2935     0.3143     0.3351     0.3558     0.3766 
              0.3974     0.4182     0.4390     0.4597     0.4805 
              0.5013     0.5221     0.5429     0.5636     0.5844 
              0.6052     0.6260     0.6468     0.6675     0.6883 
              0.7091     0.7299     0.7506     0.7714     0.7922 
              0.8130     0.8338     0.8545     0.8753     0.8961 
              0.9169     0.9377     0.9584     0.9792     1.0000 
  Hrad:  
              0.0158     0.0315     0.0584     0.0663     0.0965 
              0.1260     0.1549     0.1832     0.2109     0.2381 
              0.2647     0.2907     0.3162     0.3413     0.3658 
              0.3899     0.4135     0.4367     0.4594     0.4817 
              0.5036     0.5251     0.5462     0.5669     0.5873 
              0.6073     0.6269     0.6462     0.6652     0.6839 
              0.7022     0.7202     0.7380     0.7554     0.7726 
              0.7894     0.8061     0.8224     0.8385     0.8543 
              0.8699     0.8853     0.9004     0.9153     0.9299 
              0.9443     0.9586     0.9726     0.9864     1.0000 
  Width: 
              0.3175     0.6349     0.7143     1.0000     1.0000 
              1.0000     1.0000     1.0000     1.0000     1.0000 
              1.0000     1.0000     1.0000     1.0000     1.0000 
              1.0000     1.0000     1.0000     1.0000     1.0000 
              1.0000     1.0000     1.0000     1.0000     1.0000 
              1.0000     1.0000     1.0000     1.0000     1.0000 
              1.0000     1.0000     1.0000     1.0000     1.0000 
              1.0000     1.0000     1.0000     1.0000     1.0000 
              1.0000     1.0000     1.0000     1.0000     1.0000 
              1.0000     1.0000     1.0000     1.0000     1.0000 

  Transect Calle9m
  Area:  
              0.0031     0.0123     0.0260     0.0417     0.0625 
              0.0833     0.1042     0.1250     0.1458     0.1667 
              0.1875     0.2083     0.2292     0.2500     0.2708 
              0.2917     0.3125     0.3333     0.3542     0.3750 
              0.3958     0.4167     0.4375     0.4583     0.4792 
              0.5000     0.5208     0.5417     0.5625     0.5833 
              0.6042     0.6250     0.6458     0.6667     0.6875 
              0.7083     0.7292     0.7500     0.7708     0.7917 
              0.8125     0.8333     0.8542     0.8750     0.8958 
              0.9167     0.9375     0.9583     0.9792     1.0000 
  Hrad:  
              0.0133     0.0267     0.0495     0.0617     0.0859 
              0.1116     0.1375     0.1632     0.1887     0.2139 
              0.2388     0.2633     0.2875     0.3114     0.3349 
              0.3581     0.3810     0.4036     0.4259     0.4479 
              0.4696     0.4910     0.5122     0.5331     0.5537 
              0.5741     0.5943     0.6142     0.6338     0.6533 
              0.6725     0.6915     0.7102     0.7288     0.7471 
              0.7653     0.7832     0.8010     0.8185     0.8359 
              0.8531     0.8701     0.8869     0.9036     0.9200 
              0.9364     0.9525     0.9685     0.9843     1.0000 
  Width: 
              0.2963     0.5926     0.6667     1.0000     1.0000 
              1.0000     1.0000     1.0000     1.0000     1.0000 
              1.0000     1.0000     1.0000     1.0000     1.0000 
              1.0000     1.0000     1.0000     1.0000     1.0000 
              1.0000     1.0000     1.0000     1.0000     1.0000 
              1.0000     1.0000     1.0000     1.0000     1.0000 
              1.0000     1.0000     1.0000     1.0000     1.0000 
              1.0000     1.0000     1.0000     1.0000     1.0000 
              1.0000     1.0000     1.0000     1.0000     1.0000 
              1.0000     1.0000     1.0000     1.0000     1.0000 

  Transect tr01
  Area:  
              0.0006     0.0025     0.0057     0.0101     0.0158 
              0.0227     0.0309     0.0404     0.0512     0.0632 
              0.0764     0.0909     0.1067     0.1230     0.1400 
              0.1576     0.1757     0.1944     0.2138     0.2337 
              0.2542     0.2753     0.2970     0.3192     0.3421 
              0.3654     0.3889     0.4127     0.4368     0.4611 
              0.4856     0.5104     0.5355     0.5608     0.5863 
              0.6121     0.6382     0.6645     0.6911     0.7179 
              0.7450     0.7723     0.7999     0.8277     0.8558 
              0.8841     0.9127     0.9416     0.9707     1.0000 
  Hrad:  
              0.0207     0.0414     0.0621     0.0829     0.1036 
              0.1243     0.1450     0.1657     0.1864     0.2071 
              0.2278     0.2486     0.2732     0.3010     0.3277 
              0.3536     0.3787     0.4031     0.4268     0.4501 
              0.4728     0.4951     0.5170     0.5385     0.5597 
              0.5829     0.6054     0.6273     0.6485     0.6691 
              0.6892     0.7088     0.7278     0.7465     0.7647 
              0.7825     0.7999     0.8169     0.8337     0.8501 
              0.8662     0.8820     0.8976     0.9129     0.9279 
              0.9428     0.9574     0.9718     0.9860     1.0000 
  Width: 
              0.0429     0.0857     0.1286     0.1714     0.2143 
              0.2571     0.3000     0.3429     0.3857     0.4286 
              0.4714     0.5143     0.5457     0.5657     0.5857 
              0.6057     0.6257     0.6457     0.6657     0.6857 
              0.7057     0.7257     0.7457     0.7657     0.7857 
              0.7943     0.8029     0.8114     0.8200     0.8286 
              0.8371     0.8457     0.8543     0.8629     0.8714 
              0.8800     0.8886     0.8971     0.9057     0.9143 
              0.9229     0.9314     0.9400     0.9486     0.9571 
              0.9657     0.9743     0.9829     0.9914     1.0000 
  
  
  ****************
  Analysis Options
  ****************
  Flow Units ............... CMS
  Process Models:
    Rainfall/Runoff ........ YES
    RDII ................... NO
    Snowmelt ............... NO
    Groundwater ............ NO
    Flow Routing ........... YES
    Ponding Allowed ........ YES
    Water Quality .......... NO
  Infiltration Method ...... CURVE_NUMBER
  Flow Routing Method ...... DYNWAVE
  Surcharge Method ......... EXTRAN
  Starting Date ............ 01/01/2024 00:00:00
  Ending Date .............. 01/02/2024 23:00:00
  Antecedent Dry Days ...... 0.0
  Report Time Step ......... 00:05:00
  Wet Time Step ............ 00:00:05
  Dry Time Step ............ 00:00:05
  Routing Time Step ........ 1.00 sec
  Variable Time Step ....... NO
  Maximum Trials ........... 8
  Number of Threads ........ 1
  Head Tolerance ........... 0.001500 m
  
  
  *********************
  Control Actions Taken
  *********************

  
  **************************        Volume         Depth
  Runoff Quantity Continuity     hectare-m            mm
  **************************     ---------       -------
  Total Precipitation ......         8.910       206.730
  Evaporation Loss .........         0.000         0.000
  Infiltration Loss ........         0.876        20.320
  Surface Runoff ...........         7.895       183.189
  Final Storage ............         0.139         3.222
  Continuity Error (%) .....         0.000
  
  
  **************************        Volume        Volume
  Flow Routing Continuity        hectare-m      10^6 ltr
  **************************     ---------     ---------
  Dry Weather Inflow .......         0.000         0.000
  Wet Weather Inflow .......         7.895        78.956
  Groundwater Inflow .......         0.000         0.000
  RDII Inflow ..............         0.000         0.000
  External Inflow ..........         0.000         0.000
  External Outflow .........         4.927        49.274
  Flooding Loss ............         2.933        29.327
  Evaporation Loss .........         0.000         0.000
  Exfiltration Loss ........         0.000         0.000
  Initial Stored Volume ....         0.000         0.000
  Final Stored Volume ......         0.034         0.337
  Continuity Error (%) .....         0.023
  
  
  ********************************
  Highest Flow Instability Indexes
  ********************************
  All links are stable.
  
  
  *********************************
  Most Frequent Nonconverging Nodes
  *********************************
  Node *Lï¿½01_44(salida) (0.01%)
  Node *ZN01_37(salida) (0.01%)
  Node *ZS01_03(salida) (0.01%)
  Node *ZS02_03 (0.01%)
  Node Jun-358 (0.01%)
  
  
  *************************
  Routing Time Step Summary
  *************************
  Minimum Time Step           :     1.00 sec
  Average Time Step           :     1.00 sec
  Maximum Time Step           :     1.00 sec
  % of Time in Steady State   :     0.00
  Average Iterations per Step :     2.05
  % of Steps Not Converging   :     0.01
  
  
  ***************************
  Subcatchment Runoff Summary
  ***************************
  
  ------------------------------------------------------------------------------------------------------------------------------
                            Total      Total      Total      Total     Imperv       Perv      Total       Total     Peak  Runoff
                           Precip      Runon       Evap      Infil     Runoff     Runoff     Runoff      Runoff   Runoff   Coeff
  Subcatchment                 mm         mm         mm         mm         mm         mm         mm    10^6 ltr      CMS
  ------------------------------------------------------------------------------------------------------------------------------
  CR05b                    206.73       0.00       0.00      30.31      51.31     123.43     174.74        4.48     0.15   0.845
  CR06a                    206.73       0.00       0.00      28.69      59.52     116.91     176.42        6.55     0.22   0.853
  CR06b                    206.73       0.00       0.00      17.79      51.31     134.28     185.59        5.44     0.18   0.898
  CR07                     206.73       0.00       0.00      18.03      49.26     136.23     185.49        6.40     0.21   0.897
  CU_01                    206.73       0.00       0.00      18.98      41.05     143.26     184.30        0.48     0.02   0.892
  CU_02                    206.73       0.00       0.00      17.79      51.31     134.34     185.65        0.47     0.02   0.898
  CU_03                    206.73       0.00       0.00      19.21      38.99     145.13     184.13        0.40     0.01   0.891
  CU_04                    206.73       0.00       0.00      15.42      71.83     116.44     188.27        0.91     0.03   0.911
  CU_05                    206.73       0.00       0.00      17.79      51.31     134.34     185.65        0.64     0.02   0.898
  CU_06                    206.73       0.00       0.00      21.35      20.52     161.07     181.60        1.00     0.03   0.878
  CU_07                    206.73       0.00       0.00      19.21      38.99     145.06     184.06        0.54     0.02   0.890
  CU_08                    206.73       0.00       0.00      16.84      59.52     127.13     186.64        0.51     0.02   0.903
  CU_09                    206.73       0.00       0.00      16.60      61.72     125.42     187.14        0.32     0.01   0.905
  CU_10                    206.73       0.00       0.00      17.79      51.31     134.36     185.67        0.47     0.02   0.898
  CU_11                    206.73       0.00       0.00      17.79      51.31     134.35     185.66        0.98     0.03   0.898
  CU_12                    206.73       0.00       0.00      16.84      59.52     127.10     186.61        0.49     0.02   0.903
  CU_13                    206.73       0.00       0.00      18.98      41.05     143.30     184.34        0.29     0.01   0.892
  CU_14                    206.73       0.00       0.00      17.79      51.31     134.31     185.62        0.59     0.02   0.898
  CU_15                    206.73       0.00       0.00      17.79      51.31     134.36     185.67        0.55     0.02   0.898
  CU_16                    206.73       0.00       0.00      17.79      51.31     134.39     185.70        0.47     0.02   0.898
  CU_17                    206.73     806.87       0.00      18.98     202.42     788.68     991.10        6.68     0.22   0.978
  CU_18                    206.73       0.00       0.00      16.84      59.52     127.18     186.69        0.45     0.01   0.903
  CU_19                    206.73       0.00       0.00      18.98      41.05     143.27     184.31        0.81     0.03   0.892
  CU_20                    206.73       0.00       0.00      17.79      51.31     134.33     185.63        0.78     0.03   0.898
  CU_21                    206.73       0.00       0.00      17.55      53.36     132.56     185.92        0.41     0.01   0.899
  CU_22                    206.73       0.00       0.00      20.16      30.78     152.28     183.06        0.47     0.02   0.886
  CU_23                    206.73       0.00       0.00      20.16      30.78     152.26     183.05        0.45     0.01   0.885
  CU_24                    206.73     375.70       0.00      20.16      87.14     471.36     558.50        9.51     0.31   0.959
  CU_25                    206.73       0.00       0.00      17.79      51.31     134.29     185.59        0.77     0.03   0.898
  CU_26                    206.73       0.00       0.00      16.84      59.52     127.15     186.67        0.42     0.01   0.903
  CU_27                    206.73       0.00       0.00      19.21      38.99     145.01     184.01        1.06     0.04   0.890
  CU_28                    206.73       0.00       0.00      17.79      51.31     134.16     185.46        0.67     0.02   0.897
  CU_29                    206.73       0.00       0.00      15.42      71.83     116.45     188.28        0.43     0.01   0.911
  CU_30                    206.73       0.00       0.00      19.21      38.99     145.09     184.08        0.56     0.02   0.890
  CU_31                    206.73       0.00       0.00      20.16      30.78     152.15     182.93        1.84     0.06   0.885
  CU_32                    206.73       0.00       0.00      19.21      38.99     144.91     183.90        1.31     0.04   0.890
  CU_33                    206.73       0.00       0.00      17.79      51.31     134.19     185.50        1.41     0.05   0.897
  CU_34                    206.73       0.00       0.00      17.79      51.31     134.23     185.54        1.14     0.04   0.897
  CU_35                    206.73       0.00       0.00      17.79      51.31     134.20     185.51        1.32     0.04   0.897
  CU_36                    206.73       0.00       0.00      17.79      51.31     134.14     185.44        1.88     0.06   0.897
  CU_37                    206.73       0.00       0.00      17.79      51.31     134.23     185.54        1.13     0.04   0.897
  CU_38                    206.73       0.00       0.00      16.84      59.52     127.09     186.61        0.59     0.02   0.903
  CU_39                    206.73       0.00       0.00      16.60      61.57     125.41     186.97        0.43     0.01   0.904
  CU_40                    206.73       0.00       0.00      16.84      59.52     127.10     186.61        0.53     0.02   0.903
  CU_41                    206.73       0.00       0.00      18.98      41.05     143.14     184.18        0.84     0.03   0.891
  CU_42                    206.73       0.00       0.00      16.60      61.57     125.38     186.95        1.22     0.04   0.904
  CU_43                    206.73       0.00       0.00      16.84      59.52     127.10     186.62        1.64     0.05   0.903
  CU_44                    206.73       0.00       0.00      19.45      36.94     146.77     183.71        1.02     0.03   0.889
  CU_45                    206.73       0.00       0.00      21.82      16.42     164.35     180.77        3.80     0.13   0.874
  CU_46                    206.73       0.00       0.00      17.79      51.31     134.29     185.59        1.04     0.03   0.898
  CU_47                    206.73       0.00       0.00      19.21      38.99     145.05     184.04        0.57     0.02   0.890
  CU_48                    206.73       0.00       0.00      17.08      57.46     128.91     186.37        1.39     0.05   0.902
  CU_49                    206.73       0.00       0.00      17.79      51.31     134.19     185.50        1.41     0.05   0.897
  CU_50                    206.73       0.00       0.00      20.16      30.78     152.16     182.94        0.98     0.03   0.885
  CU_51                    206.73       0.00       0.00      19.69      34.89     148.36     183.25        1.78     0.06   0.886
  CU_52                    206.73      85.10       0.00      22.54      14.52     250.74     265.26        3.08     0.10   0.909
  CU_53                    206.73       0.00       0.00      17.79      51.31     134.25     185.56        0.99     0.03   0.898
  CU_54                    206.73       0.00       0.00      22.54      10.26     170.13     180.39        0.51     0.02   0.873
  CU_55                    206.73       0.00       0.00      22.54      10.26     169.91     180.18        1.04     0.04   0.872
  CU_57                    206.73       0.00       0.00      22.54      10.26     170.16     180.42        0.27     0.01   0.873
  CU_58                    206.73       0.00       0.00      22.54      10.26     170.15     180.41        0.29     0.01   0.873
  CU_59                    206.73       0.00       0.00      20.16      30.78     152.13     182.91        0.95     0.03   0.885
  CU_60                    206.73       0.00       0.00      19.21      38.99     144.96     183.95        0.61     0.02   0.890
  CU_61                    206.73       0.00       0.00      20.16      30.78     152.06     182.85        0.76     0.03   0.884
  CU_62                    206.73       0.00       0.00      16.60      61.57     125.34     186.91        0.25     0.01   0.904
  CU_63                    206.73       0.00       0.00      17.79      51.31     134.37     185.68        0.31     0.01   0.898
  
  
  ******************
  Node Depth Summary
  ******************
  
  ---------------------------------------------------------------------------------
                                 Average  Maximum  Maximum  Time of Max    Reported
                                   Depth    Depth      HGL   Occurrence   Max Depth
  Node                 Type       Meters   Meters   Meters  days hr:min      Meters
  ---------------------------------------------------------------------------------
  *Lï¿½_01             JUNCTION     0.02     0.07  1637.92     0  16:48        0.07
  *Lï¿½_02             JUNCTION     0.02     0.07  1637.89     0  16:48        0.07
  *Lï¿½01_07(Alc03_ab) JUNCTION     0.03     0.13  1637.49     0  16:48        0.13
  *Lï¿½012             JUNCTION     0.02     0.11  1637.26     0  16:48        0.11
  *Lï¿½02_01           JUNCTION     0.06     0.17  1639.89     0  16:48        0.17
  *Lï¿½02_02(Alc16_ar) JUNCTION     0.12     0.41  1636.79     0  16:48        0.41
  *Lï¿½02_03(Alc16_ab) JUNCTION     0.05     0.21  1636.49     0  16:48        0.21
  *Lï¿½02_04(Alc17_ar) JUNCTION     0.22     0.60  1636.27     0  16:48        0.60
  *Lï¿½02_05(Alc17_ab) JUNCTION     0.18     0.52  1636.21     0  16:48        0.52
  *Lï¿½02_06           JUNCTION     0.28     0.50  1636.08     0  12:17        0.50
  *Lï¿½02_07           JUNCTION     0.24     0.54  1635.95     0  16:17        0.54
  *Lï¿½02_09(Alc18_ar) JUNCTION     0.66     0.90  1635.87     0  06:48        0.90
  *Lï¿½02_10(Alc18_ab) JUNCTION     0.12     0.24  1635.24     0  15:59        0.24
  *Lï¿½03              JUNCTION     0.00     0.00  1638.18     0  00:00        0.00
  *Lï¿½03_01           JUNCTION     0.11     0.79  1639.84     0  16:50        0.79
  *Lï¿½03_02           JUNCTION     0.11     0.56  1639.41     0  16:48        0.56
  *Lï¿½03_03           JUNCTION     0.05     0.24  1638.72     0  16:48        0.24
  *Lï¿½03_04           JUNCTION     0.19     0.59  1638.03     0  14:26        0.58
  *Lï¿½03_05           JUNCTION     0.11     0.32  1637.23     0  16:47        0.32
  *Lï¿½03_C2_03        JUNCTION     0.04     0.12  1640.13     0  16:48        0.12
  *Lï¿½03_C4_01        JUNCTION     0.03     0.08  1641.91     0  16:48        0.08
  *Lï¿½03_C4_02        JUNCTION     0.02     0.06  1641.07     0  16:48        0.06
  *Lï¿½03_C4_03        JUNCTION     0.03     0.09  1639.90     0  16:48        0.09
  *Lï¿½03_C6_01        JUNCTION     0.03     0.08  1639.95     0  16:48        0.08
  *Lï¿½03_C7_01        JUNCTION     0.02     0.06  1639.29     0  16:48        0.06
  *Lï¿½04              JUNCTION     0.00     0.02  1637.99     0  16:48        0.02
  *Lï¿½05              JUNCTION     0.03     0.12  1637.99     0  16:48        0.12
  *Lï¿½06              JUNCTION     0.01     0.04  1637.85     0  16:48        0.04
  *Lï¿½07              JUNCTION     0.03     0.13  1637.49     0  16:48        0.13
  *Lï¿½08              JUNCTION     0.05     0.19  1637.49     0  16:48        0.19
  *Lï¿½09              JUNCTION     0.13     0.29  1637.45     0  16:48        0.29
  *Lï¿½11              JUNCTION     0.06     0.22  1637.45     0  16:48        0.22
  *Lï¿½13              JUNCTION     0.13     0.26  1637.26     0  16:48        0.26
  *Lï¿½14              JUNCTION     0.12     0.23  1637.24     0  16:48        0.23
  *Lï¿½15              JUNCTION     0.07     0.18  1637.24     0  16:48        0.18
  *Lï¿½16              JUNCTION     0.02     0.06  1637.13     0  16:48        0.06
  *Lï¿½17              JUNCTION     0.27     0.34  1637.13     0  16:48        0.34
  *Lï¿½18              JUNCTION     0.04     0.14  1636.79     0  16:48        0.14
  *Lï¿½19              JUNCTION     0.02     0.07  1636.26     0  16:48        0.07
  *Lï¿½20              JUNCTION     0.02     0.08  1636.18     0  16:48        0.08
  *Lï¿½21              JUNCTION     0.15     0.27  1635.56     0  16:48        0.27
  *Lï¿½22              JUNCTION     0.03     0.10  1635.16     0  16:48        0.10
  *Lï¿½23              JUNCTION     0.08     0.18  1635.13     0  16:47        0.18
  *Lï¿½24              JUNCTION     0.19     0.41  1635.10     0  16:48        0.41
  *Lï¿½25              JUNCTION     0.10     0.24  1634.89     0  16:48        0.24
  *Lï¿½26              JUNCTION     0.16     0.34  1634.80     0  16:48        0.34
  *Lï¿½27              JUNCTION     0.21     0.42  1634.78     0  12:10        0.42
  *Lï¿½28              JUNCTION     0.31     0.52  1634.77     0  12:10        0.52
  *Lï¿½29              JUNCTION     0.14     0.30  1634.60     0  12:10        0.30
  *Lï¿½30              JUNCTION     0.20     0.42  1634.59     0  07:28        0.42
  *Lï¿½31              JUNCTION     0.21     0.44  1634.59     0  16:48        0.44
  *Lï¿½32              JUNCTION     0.24     0.50  1634.55     0  05:41        0.50
  *Lï¿½34              JUNCTION     0.25     0.49  1634.49     0  05:41        0.49
  *Lï¿½35              JUNCTION     0.25     0.57  1634.31     0  16:48        0.57
  *Lï¿½36              JUNCTION     0.30     0.52  1634.14     0  16:48        0.52
  *Lï¿½37              JUNCTION     0.16     0.34  1634.07     0  16:48        0.34
  *Lï¿½39              JUNCTION     0.14     0.30  1634.01     0  16:48        0.30
  *Lï¿½40              JUNCTION     0.05     0.12  1633.56     0  16:48        0.12
  *Lï¿½41              JUNCTION     0.06     0.13  1633.29     0  16:48        0.13
  *Lï¿½42              JUNCTION     0.15     0.33  1632.86     0  16:48        0.33
  *Lï¿½43              JUNCTION     0.10     0.22  1632.60     0  16:48        0.22
  *ZN01_33             JUNCTION     0.03     0.12  1637.81     0  16:48        0.12
  *ZN01_34             JUNCTION     0.03     0.11  1637.74     0  16:48        0.11
  *ZN01_35             JUNCTION     0.03     0.11  1637.67     0  16:49        0.11
  *ZN01_36             JUNCTION     0.03     0.10  1637.55     0  16:50        0.10
  *ZS01_01(Alc01_ar)   JUNCTION     0.17     0.46  1633.57     0  16:48        0.46
  *ZS01_02(Alc01_ab)   JUNCTION     0.30     0.57  1633.55     0  16:49        0.57
  *ZS02_01(Alc02_ar)   JUNCTION     0.09     0.25  1634.39     0  16:15        0.25
  Jun-228              JUNCTION     0.04     0.12  1640.02     0  16:48        0.12
  Jun-234              JUNCTION     0.07     0.21  1642.04     0  16:48        0.21
  Jun-235              JUNCTION     0.04     0.12  1641.67     0  16:48        0.12
  Jun-237              JUNCTION     0.02     0.07  1639.30     0  16:48        0.07
  Jun-238              JUNCTION     0.01     0.04  1641.87     0  16:48        0.04
  Jun-244              JUNCTION     0.02     0.07  1639.84     0  16:48        0.07
  Jun-247              JUNCTION     0.02     0.07  1638.89     0  16:48        0.07
  Jun-248              JUNCTION     0.05     0.14  1639.00     0  16:48        0.14
  Jun-249              JUNCTION     0.01     0.05  1638.93     0  16:48        0.05
  Jun-251              JUNCTION     0.03     0.07  1637.36     0  16:48        0.07
  Jun-263              JUNCTION     0.14     0.40  1638.62     0  13:33        0.40
  Jun-264              JUNCTION     0.02     0.04  1638.72     0  16:48        0.04
  Jun-265              JUNCTION     0.04     0.13  1641.02     0  16:48        0.13
  Jun-266              JUNCTION     0.07     0.18  1637.66     0  16:48        0.18
  Jun-267              JUNCTION     0.01     0.04  1641.56     0  16:48        0.04
  Jun-268              JUNCTION     0.01     0.04  1639.91     0  16:48        0.04
  Jun-269              JUNCTION     0.04     0.10  1639.97     0  16:48        0.10
  Jun-270              JUNCTION     0.05     0.15  1638.62     0  16:48        0.15
  Jun-272              JUNCTION     0.03     0.07  1640.49     0  16:48        0.07
  Jun-273              JUNCTION     0.02     0.06  1638.93     0  16:45        0.06
  Jun-275              JUNCTION     0.05     0.15  1641.16     0  16:48        0.15
  Jun-276              JUNCTION     0.06     0.17  1641.16     0  16:48        0.17
  Jun-311              JUNCTION     0.02     0.05  1641.69     0  16:48        0.05
  Jun-312              JUNCTION     0.03     0.09  1640.16     0  16:48        0.09
  Jun-315              JUNCTION     0.02     0.06  1639.04     0  16:48        0.06
  Jun-316              JUNCTION     0.04     0.10  1637.49     0  16:48        0.10
  Jun-317              JUNCTION     0.04     0.12  1636.11     0  16:48        0.12
  Jun-318              JUNCTION     0.07     0.20  1635.17     0  16:48        0.20
  Jun-319              JUNCTION     0.03     0.09  1634.81     0  16:48        0.09
  Jun-320              JUNCTION     0.04     0.11  1634.57     0  16:48        0.11
  Jun-321              JUNCTION     0.03     0.13  1634.39     0  16:03        0.13
  Jun-322              JUNCTION     0.07     0.20  1634.45     0  16:48        0.20
  Jun-323              JUNCTION     0.07     0.22  1634.49     0  16:48        0.22
  Jun-324              JUNCTION     0.05     0.15  1634.58     0  16:48        0.15
  Jun-325              JUNCTION     0.17     0.28  1634.58     0  16:48        0.28
  Jun-326              JUNCTION     0.05     0.15  1634.58     0  16:48        0.15
  Jun-327              JUNCTION     0.02     0.10  1634.59     0  16:48        0.10
  Jun-328              JUNCTION     0.26     0.37  1634.59     0  16:48        0.37
  Jun-329              JUNCTION     0.34     0.45  1634.59     0  16:48        0.45
  Jun-330              JUNCTION     0.14     0.23  1634.58     0  16:48        0.23
  Jun-331              JUNCTION     0.38     0.49  1634.58     0  16:48        0.49
  Jun-332              JUNCTION     0.34     0.45  1634.58     0  16:48        0.45
  Jun-333              JUNCTION     0.63     0.84  1634.00     0  16:48        0.84
  Jun-334              JUNCTION     0.04     0.17  1633.97     0  16:49        0.17
  Jun-335              JUNCTION     0.05     0.19  1633.84     0  16:49        0.19
  Jun-336              JUNCTION     0.05     0.22  1633.74     0  16:48        0.22
  Jun-337              JUNCTION     0.06     0.24  1633.67     0  16:48        0.24
  Jun-338              JUNCTION     0.07     0.25  1633.64     0  16:48        0.25
  Jun-339              JUNCTION     0.05     0.23  1633.61     0  16:48        0.23
  Jun-340              JUNCTION     0.05     0.29  1633.58     0  16:48        0.29
  Jun-341              JUNCTION     0.04     0.11  1637.31     0  16:48        0.11
  Jun-342              JUNCTION     0.06     0.18  1635.13     0  16:48        0.18
  Jun-344              JUNCTION     0.06     0.18  1635.04     0  16:48        0.18
[...]
  Link-355             CONDUIT     0.260     0  16:48      0.14    0.07    0.67
  Link-356             CONDUIT     0.260     0  16:48      0.13    0.06    0.72
  Link-357             CONDUIT     0.269     0  16:48      0.10    0.14    0.94
  Link-359             CONDUIT     0.564     0  16:48      0.32    0.09    0.67
  Link-360             CONDUIT     0.564     0  16:49      0.64    0.15    0.35
  Link-361             CONDUIT     0.563     0  16:49      0.56    0.18    0.40
  Link-362             CONDUIT     0.666     0  16:48      0.58    0.23    0.45
  Link-363             CONDUIT     0.666     0  16:48      0.54    0.26    0.49
  Link-364             CONDUIT     0.666     0  16:48      0.55    0.45    0.47
  Link-365             CONDUIT     0.666     0  16:48      0.52    0.20    0.51
  Link-366             CONDUIT     0.666     0  16:48      0.33    0.15    0.74
  Link-367             CHANNEL     0.079     0  16:48      0.20    0.00    0.05
  Link-368             CHANNEL     0.119     0  16:48      0.30    0.00    0.06
  Link-369             CHANNEL     0.196     0  16:48      0.32    0.00    0.07
  Link-370             CHANNEL     0.243     0  16:48      0.27    0.01    0.09
  Link-371             CHANNEL     0.260     0  16:48      0.29    0.01    0.09
  Link-372             CHANNEL     0.295     0  16:48      0.48    0.01    0.07
  Link-375             CHANNEL     0.236     0  16:48      0.32    0.00    0.08
  Link-376             CHANNEL     0.069     0  16:48      0.20    0.00    0.05
  Link-377             CHANNEL     0.137     0  16:48      0.37    0.00    0.05
  Link-378             CHANNEL     0.054     0  16:48      0.38    0.00    0.04
  Link-379             CHANNEL     0.171     0  16:48      0.39    0.00    0.06
  Link-380             CHANNEL     0.019     0  16:48      0.14    0.00    0.04
  Link-381             CHANNEL     0.153     0  16:48      0.50    0.00    0.05
  Link-382             CHANNEL     0.183     0  16:48      0.50    0.00    0.06
  Link-383             CHANNEL     0.050     0  16:48      0.10    0.00    0.06
  Link-384             CHANNEL     0.099     0  16:48      0.27    0.00    0.08
  Link-385             CHANNEL     0.197     0  16:48      0.48    0.00    0.11
  Link-386             CONDUIT     0.044     0  16:48      0.25    0.05    0.60
  Link-387             CONDUIT     0.154     0  14:26      0.78    0.83    1.00
  Link-388             CONDUIT     0.150     0  14:26      1.26    1.00    1.00
  Link-389             CONDUIT     0.139     0  18:01      1.96    0.97    1.00
  Link-390             CONDUIT     0.147     0  16:48      1.64    1.09    0.75
  Link-391             CHANNEL     0.607     0  16:48      0.36    0.00    0.13
  Link-392             CONDUIT     0.730     0  16:48      0.61    0.80    1.00
  Link-393             CONDUIT     0.730     0  16:48      0.59    0.95    1.00
  Link-394             CONDUIT     0.730     0  16:48      0.81    0.24    1.00
  Link-395             CONDUIT     0.350     0  15:10      1.38    0.49    0.57
  Link-396             CONDUIT     0.465     0  16:17      0.77    0.17    0.54
  Link-398             CONDUIT     0.222     0  16:48      4.18    1.79    1.00
  Link-399             CHANNEL     0.295     0  16:48      0.23    0.01    0.11
  Link-400             CHANNEL     0.328     0  16:48      0.42    0.01    0.08
  Link-401             CHANNEL     0.564     0  16:48      0.74    0.00    0.24
  Link-402             CHANNEL     0.269     0  16:48      0.46    0.00    0.14
  Link-403             CHANNEL     0.130     0  16:48      0.47    0.00    0.05
  1                    CONDUIT     0.147     0  16:48      1.40    0.20    0.75
  2                    CONDUIT     0.333     0  16:48      1.51    0.63    1.00
  4                    CHANNEL     0.032     0  16:48      0.24    0.00    0.03
  
  
  ***************************
  Flow Classification Summary
  ***************************
  
  -------------------------------------------------------------------------------------
                      Adjusted    ---------- Fraction of Time in Flow Class ---------- 
                       /Actual         Up    Down  Sub   Sup   Up    Down  Norm  Inlet 
  Conduit               Length    Dry  Dry   Dry   Crit  Crit  Crit  Crit  Ltd   Ctrl  
  -------------------------------------------------------------------------------------
  *Lï¿½02_10              1.76   0.03  0.02  0.00  0.43  0.53  0.00  0.00  0.22  0.00
  /8_de_Abril_Norte_01    1.00   0.03  0.00  0.00  0.00  0.97  0.00  0.00  0.46  0.00
  /8_de_Abril_Norte_02    1.00   0.03  0.00  0.00  0.97  0.00  0.00  0.00  0.95  0.00
  /8_de_Abril_Norte_03    1.00   0.03  0.00  0.00  0.96  0.00  0.00  0.00  0.00  0.00
  /8_de_Abril_Norte_04    1.00   0.03  0.01  0.00  0.96  0.00  0.00  0.00  0.00  0.00
  /8_de_Abril_Norte_05    1.00   0.03  0.01  0.00  0.96  0.00  0.00  0.00  0.00  0.00
  /8_de_Abril_Norte_06    1.00   0.03  0.01  0.00  0.96  0.00  0.00  0.00  0.00  0.00
  /8_de_Abril_Norte_08    1.00   0.04  0.00  0.00  0.00  0.00  0.96  0.00  0.00  0.00
  /Baden_Los_ï¿½ires_01    1.00   0.03  0.01  0.00  0.96  0.00  0.00  0.00  0.86  0.00
  /Baden_Los_Ñires_02     1.00   0.03  0.00  0.00  0.97  0.00  0.00  0.00  0.00  0.00
  /Baden_Los_ï¿½ires_03    1.00   0.03  0.00  0.00  0.97  0.00  0.00  0.00  0.84  0.00
  /Baden_Los_ï¿½ires_04    1.00   0.03  0.00  0.00  0.97  0.00  0.00  0.00  0.00  0.00
  /Baden_Los_ï¿½ires_05    1.00   0.03  0.00  0.00  0.97  0.00  0.00  0.00  0.86  0.00
  /Cuenca_del_Trolope_01    1.00   0.03  0.00  0.00  0.97  0.00  0.00  0.00  0.01  0.00
  /Cuenca_del_Trolope_02    1.00   0.03  0.00  0.00  0.56  0.41  0.00  0.00  0.52  0.00
  /El_Palenque_01         1.00   0.03  0.00  0.00  0.97  0.00  0.00  0.00  0.97  0.00
  /El_Palenque_02         1.00   0.03  0.00  0.00  0.97  0.00  0.00  0.00  0.00  0.00
  /La_Herradura_01        1.00   0.03  0.00  0.00  0.95  0.02  0.00  0.00  0.95  0.00
  /Laguna_Escondida_01    1.00   0.03  0.01  0.00  0.73  0.24  0.00  0.00  0.97  0.00
  /Laguna_Escondida_02    1.00   0.03  0.00  0.00  0.95  0.02  0.00  0.00  0.94  0.00
  /Laguna_Escondida_03    1.00   0.04  0.00  0.00  0.95  0.02  0.00  0.00  0.94  0.00
  /Las_Pampas_01          1.00   0.03  0.00  0.00  0.28  0.69  0.00  0.00  0.05  0.00
  /Las_Pampas_02          1.00   0.03  0.01  0.00  0.97  0.00  0.00  0.00  0.97  0.00
  /Las_Pampas_03          1.00   0.03  0.00  0.00  0.96  0.01  0.00  0.00  0.95  0.00
  /Las_Pampas_04          1.00   0.03  0.00  0.00  0.94  0.03  0.00  0.00  0.32  0.00
  /Las_Pampas_05          1.05   0.03  0.01  0.00  0.54  0.42  0.00  0.00  0.54  0.00
  /Los_ï¿½ires_00_(Alc_00)    1.00   0.23  0.10  0.00  0.67  0.00  0.00  0.00  0.52  0.00
  /Los_ï¿½ires_01         1.12   0.23  0.77  0.00  0.00  0.00  0.00  0.00  0.00  0.00
  /Los_ï¿½ires_02_(Alc_01)    1.00   0.86  0.14  0.00  0.00  0.00  0.00  0.00  0.00  0.00
  /Los_ï¿½ires_03         1.00   0.03  0.83  0.00  0.14  0.00  0.00  0.00  0.64  0.00
  /Los_ï¿½ires_04_(Alc_02)    1.00   0.03  0.00  0.00  0.97  0.00  0.00  0.00  0.00  0.00
  /Los_ï¿½ires_05         1.00   0.03  0.08  0.00  0.89  0.00  0.00  0.00  0.96  0.00
  /Los_ï¿½ires_06_(Alc_03)    1.00   0.03  0.00  0.00  0.97  0.00  0.00  0.00  0.00  0.00
  /Los_ï¿½ires_07         1.00   0.03  0.01  0.00  0.97  0.00  0.00  0.00  0.27  0.00
  /Los_ï¿½ires_08_(Alc_04)    1.00   0.03  0.05  0.00  0.93  0.00  0.00  0.00  0.00  0.96
  /Los_ï¿½ires_10         1.00   0.03  0.00  0.00  0.97  0.00  0.00  0.00  0.02  0.00
  /Los_ï¿½ires_11_(Alc_05)    1.00   0.03  0.00  0.00  0.82  0.16  0.00  0.00  0.00  0.46
  /Los_ï¿½ires_12         1.00   0.03  0.00  0.00  0.97  0.00  0.00  0.00  0.84  0.00
  /Los_ï¿½ires_13_(Alc_06)    1.00   0.03  0.01  0.00  0.96  0.00  0.00  0.00  0.00  0.00
  /Los_ï¿½ires_14         1.00   0.04  0.00  0.00  0.96  0.00  0.00  0.00  0.00  0.00
  /Los_ï¿½ires_15_(Alc_07)    1.00   0.04  0.00  0.00  0.75  0.21  0.00  0.00  0.00  0.00
  /Los_ï¿½ires_16         1.00   0.03  0.02  0.00  0.96  0.00  0.00  0.00  0.96  0.00
  /Los_ï¿½ires_17_(Alc_08)    1.00   0.05  0.00  0.00  0.00  0.00  0.00  0.95  0.00  0.00
  /Los_ï¿½ires_18         1.00   0.03  0.03  0.00  0.95  0.00  0.00  0.00  0.00  0.00
  /Los_ï¿½ires_19_(Alc_09)    1.02   0.03  0.00  0.00  0.97  0.00  0.00  0.00  0.97  0.00
  /Los_ï¿½ires_20         1.00   0.03  0.00  0.00  0.97  0.00  0.00  0.00  0.97  0.00
  /Los_ï¿½ires_21_(Alc_10)    1.00   0.06  0.00  0.00  0.00  0.00  0.00  0.94  0.00  0.00
  /Los_ï¿½ires_22         1.00   0.03  0.00  0.00  0.97  0.00  0.00  0.00  0.80  0.00
  /Los_ï¿½ires_23         1.00   0.03  0.00  0.00  0.97  0.00  0.00  0.00  0.97  0.00
  /Los_ï¿½ires_24         1.00   0.03  0.00  0.00  0.97  0.00  0.00  0.00  0.00  0.00
  /Los_ï¿½ires_25         1.00   0.03  0.00  0.00  0.97  0.00  0.00  0.00  0.61  0.00
  /Los_ï¿½ires_26         1.00   0.03  0.01  0.00  0.96  0.00  0.00  0.00  0.45  0.00
  /Los_ï¿½ires_27         1.00   0.03  0.00  0.00  0.97  0.00  0.00  0.00  0.01  0.00
  /Los_ï¿½ires_28_(Alc_11)    1.00   0.04  0.00  0.00  0.00  0.00  0.95  0.00  0.00  0.00
  /Los_ï¿½ires_29         1.00   0.04  0.01  0.00  0.95  0.00  0.00  0.00  0.49  0.00
  /Los_ï¿½ires_30         1.00   0.03  0.01  0.00  0.96  0.00  0.00  0.00  0.34  0.00
  /Los_ï¿½ires_31_(Alc_12)    1.00   0.03  0.00  0.00  0.46  0.52  0.00  0.00  0.01  0.00
  /Los_ï¿½ires_32         1.00   0.03  0.00  0.00  0.97  0.00  0.00  0.00  0.40  0.00
  /Los_ï¿½ires_34_(Alc_13)    1.00   0.03  0.00  0.00  0.63  0.34  0.00  0.00  0.00  0.97
  /Los_ï¿½ires_35         1.00   0.03  0.00  0.00  0.97  0.00  0.00  0.00  0.35  0.00
  /Los_ï¿½ires_36_(Alc_14)    1.00   0.03  0.01  0.00  0.96  0.00  0.00  0.00  0.00  0.00
  /Los_ï¿½ires_38         1.00   0.04  0.00  0.00  0.96  0.00  0.00  0.00  0.00  0.00
  /Los_ï¿½ires_39         1.00   0.04  0.00  0.00  0.96  0.00  0.00  0.00  0.00  0.00
  /Los_ï¿½ires_40(Alc_15)    1.00   0.03  0.01  0.00  0.96  0.00  0.00  0.00  0.96  0.00
  /Los_ï¿½ires_41         1.00   0.03  0.00  0.00  0.97  0.00  0.00  0.00  0.97  0.00
  /Los_ï¿½ires_42         1.00   0.03  0.00  0.00  0.97  0.00  0.00  0.00  0.00  0.00
  /Los_ï¿½ires_43         1.00   0.03  0.00  0.00  0.97  0.00  0.00  0.00  0.30  0.00
  /Piï¿½oneros_01         1.00   0.03  0.00  0.00  0.97  0.01  0.00  0.00  0.03  0.00
  /Piï¿½oneros_02         1.00   0.03  0.00  0.00  0.97  0.01  0.00  0.00  0.89  0.00
  /Piï¿½oneros_03         1.00   0.03  0.00  0.00  0.97  0.00  0.00  0.00  0.00  0.00
  /Piï¿½oneros_04         1.00   0.03  0.00  0.00  0.71  0.27  0.00  0.00  0.59  0.00
  /Piï¿½oneros_05         1.00   0.03  0.01  0.00  0.69  0.27  0.00  0.00  0.96  0.00
  /Piï¿½oneros_06         1.00   0.03  0.00  0.00  0.97  0.01  0.00  0.00  0.96  0.00
  /Volcan_Copahue_05      1.00   0.03  0.00  0.00  0.97  0.00  0.00  0.00  0.00  0.00
  /Volcan_Copahue_06      1.00   0.03  0.00  0.00  0.97  0.00  0.00  0.00  0.46  0.00
  /Volcan_Copahue_08      1.00   0.03  0.00  0.00  0.97  0.01  0.00  0.00  0.33  0.00
  /Volcan_Copahue_09      1.00   0.03  0.01  0.00  0.97  0.00  0.00  0.00  0.97  0.00
  /Volcan_Copahue_10      1.00   0.03  0.00  0.00  0.72  0.25  0.00  0.00  0.34  0.00
  /Volcan_Copahue_11      1.00   0.03  0.01  0.00  0.96  0.00  0.00  0.00  0.96  0.00
  /Volcan_Copahue_12      1.00   0.03  0.00  0.00  0.63  0.34  0.00  0.00  0.00  0.00
  /ZN01_32                1.00   0.03  0.21  0.00  0.77  0.00  0.00  0.00  0.96  0.00
  /ZN01_33                1.00   0.03  0.00  0.00  0.97  0.00  0.00  0.00  0.47  0.00
  /ZN01_34                1.00   0.03  0.00  0.00  0.97  0.00  0.00  0.00  0.56  0.00
  /ZN01_35                1.00   0.04  0.00  0.00  0.96  0.00  0.00  0.00  0.45  0.00
  /ZN01_36                1.00   0.05  0.00  0.00  0.95  0.00  0.00  0.00  0.77  0.00
  /ZS01_01(Alc01)         1.00   0.04  0.00  0.00  0.95  0.00  0.00  0.00  0.02  0.00
  /ZS02_01(Alc02)         1.00   0.07  0.00  0.00  0.93  0.00  0.00  0.00  0.00  0.73
  Link-256                1.00   0.03  0.26  0.00  0.71  0.00  0.00  0.00  0.97  0.00
  Link-345                1.00   0.04  0.05  0.00  0.91  0.00  0.00  0.00  0.00  0.00
  Link-346                1.00   0.07  0.00  0.00  0.93  0.00  0.00  0.00  0.58  0.00
  Link-347                1.00   0.06  0.00  0.00  0.71  0.23  0.00  0.00  0.00  0.00
  Link-348                1.00   0.06  0.00  0.00  0.94  0.00  0.00  0.00  0.42  0.00
  Link-349                1.00   0.06  0.00  0.00  0.35  0.58  0.00  0.00  0.51  0.00
  Link-350                1.33   0.03  0.04  0.00  0.94  0.00  0.00  0.00  0.00  0.00
  Link-351                1.00   0.03  0.00  0.00  0.97  0.00  0.00  0.00  0.03  0.00
  Link-352                1.00   0.03  0.02  0.00  0.96  0.00  0.00  0.00  0.73  0.00
  Link-353                1.00   0.04  0.00  0.00  0.96  0.00  0.00  0.00  0.51  0.00
  Link-354                1.00   0.03  0.02  0.00  0.96  0.00  0.00  0.00  0.01  0.00
  Link-355                1.00   0.03  0.05  0.00  0.93  0.00  0.00  0.00  0.00  0.00
  Link-356                1.00   0.03  0.05  0.00  0.93  0.00  0.00  0.00  0.02  0.00
  Link-357                1.00   0.03  0.02  0.00  0.95  0.00  0.00  0.00  0.02  0.00
  Link-359                1.00   0.05  0.07  0.00  0.89  0.00  0.00  0.00  0.00  0.00
  Link-360                1.00   0.11  0.00  0.00  0.89  0.00  0.00  0.00  0.88  0.00
  Link-361                1.00   0.03  0.09  0.00  0.89  0.00  0.00  0.00  0.89  0.00
  Link-362                1.00   0.03  0.00  0.00  0.97  0.00  0.00  0.00  0.88  0.00
  Link-363                1.00   0.03  0.00  0.00  0.97  0.00  0.00  0.00  0.52  0.00
  Link-364                1.00   0.03  0.00  0.00  0.97  0.00  0.00  0.00  0.00  0.00
  Link-365                1.00   0.04  0.00  0.00  0.96  0.00  0.00  0.00  0.05  0.00
  Link-366                1.00   0.04  0.00  0.00  0.96  0.00  0.00  0.00  0.79  0.00
  Link-367                1.00   0.03  0.00  0.00  0.97  0.00  0.00  0.00  0.97  0.00
  Link-368                1.00   0.03  0.00  0.00  0.97  0.00  0.00  0.00  0.00  0.00
  Link-369                1.00   0.03  0.00  0.00  0.97  0.01  0.00  0.00  0.96  0.00
  Link-370                1.00   0.03  0.00  0.00  0.97  0.01  0.00  0.00  0.24  0.00
  Link-371                1.00   0.03  0.00  0.00  0.97  0.00  0.00  0.00  0.54  0.00
  Link-372                1.00   0.03  0.00  0.00  0.95  0.02  0.00  0.00  0.00  0.00
  Link-375                1.00   0.03  0.00  0.00  0.96  0.01  0.00  0.00  0.96  0.00
  Link-376                1.00   0.03  0.01  0.00  0.97  0.00  0.00  0.00  0.68  0.00
  Link-377                1.00   0.03  0.01  0.00  0.97  0.00  0.00  0.00  0.97  0.00
  Link-378                1.00   0.03  0.00  0.00  0.96  0.02  0.00  0.00  0.95  0.00
  Link-379                1.00   0.03  0.00  0.00  0.97  0.00  0.00  0.00  0.56  0.00
  Link-380                1.00   0.03  0.00  0.00  0.97  0.01  0.00  0.00  0.96  0.00
  Link-381                1.00   0.03  0.00  0.00  0.73  0.24  0.00  0.00  0.95  0.00
  Link-382                1.00   0.03  0.00  0.00  0.97  0.01  0.00  0.00  0.95  0.00
  Link-383                1.00   0.03  0.01  0.00  0.96  0.00  0.00  0.00  0.96  0.00
  Link-384                1.00   0.03  0.02  0.00  0.52  0.44  0.00  0.00  0.45  0.00
  Link-385                1.38   0.04  0.00  0.00  0.94  0.02  0.00  0.00  0.94  0.00
  Link-386                1.00   0.03  0.14  0.00  0.84  0.00  0.00  0.00  0.97  0.00
  Link-387                1.00   0.03  0.00  0.00  0.97  0.00  0.00  0.00  0.38  0.00
  Link-388                1.00   0.03  0.04  0.00  0.94  0.00  0.00  0.00  0.53  0.00
  Link-389                1.00   0.03  0.00  0.00  0.46  0.52  0.00  0.00  0.35  0.00
  Link-390                1.00   0.12  0.00  0.00  0.39  0.49  0.00  0.00  0.00  0.00
  Link-391                1.34   0.03  0.01  0.00  0.68  0.28  0.00  0.00  0.89  0.00
  Link-392                1.00   0.03  0.00  0.00  0.97  0.00  0.00  0.00  0.81  0.00
  Link-393                1.00   0.03  0.00  0.00  0.97  0.00  0.00  0.00  0.04  0.00
  Link-394                1.36   0.03  0.00  0.00  0.97  0.00  0.00  0.00  0.48  0.00
  Link-395                1.00   0.04  0.00  0.00  0.96  0.00  0.00  0.00  0.02  0.00
  Link-396                1.00   0.04  0.00  0.00  0.96  0.00  0.00  0.00  0.54  0.00
  Link-398                1.00   0.03  0.00  0.00  0.51  0.47  0.00  0.00  0.74  0.00
  Link-399                1.00   0.03  0.00  0.00  0.97  0.00  0.00  0.00  0.93  0.00
  Link-400                1.00   0.03  0.00  0.00  0.96  0.01  0.00  0.00  0.00  0.00
  Link-401                2.65   0.04  0.00  0.00  0.95  0.01  0.00  0.00  0.94  0.00
  Link-402                2.36   0.04  0.00  0.00  0.93  0.03  0.00  0.00  0.03  0.00
  Link-403                1.03   0.04  0.00  0.00  0.43  0.54  0.00  0.00  0.05  0.00
  1                       3.60   0.03  0.21  0.00  0.73  0.04  0.00  0.00  0.84  0.00
  2                       1.03   0.03  0.00  0.00  0.94  0.04  0.00  0.00  0.81  0.00
  4                       1.00   0.03  0.00  0.00  0.96  0.02  0.00  0.00  0.45  0.00
  
  
  *************************
  Conduit Surcharge Summary
  *************************
  
  ----------------------------------------------------------------------------
                                                           Hours        Hours 
                         --------- Hours Full --------   Above Full   Capacity
  Conduit                Both Ends  Upstream  Dnstream   Normal Flow   Limited
  ----------------------------------------------------------------------------
  /8_de_Abril_Norte_02        0.01      0.01      2.35      0.01         0.01
  /8_de_Abril_Norte_03        0.01      0.01      0.01      2.67         0.01
  /8_de_Abril_Norte_04        0.01      1.23      0.01      1.23         0.01
  /8_de_Abril_Norte_06        0.01      0.01     21.55      0.01         0.01
  /8_de_Abril_Norte_08        0.01      0.01      0.01     21.06         0.01
  /Baden_Los_ï¿½ires_01        3.65      3.67      3.65      3.65         3.64
  /Baden_Los_Ñires_02         0.01      3.65      0.01      2.41         0.01
  /Baden_Los_ï¿½ires_03        0.01      0.01      7.17      0.01         0.01
  /Baden_Los_ï¿½ires_04        0.01      7.17      0.01      5.82         0.01
  /Baden_Los_ï¿½ires_05        0.01      0.01     45.10      0.01         0.01
  /Los_ï¿½ires_27             0.01      0.01     20.61      0.01         0.01
  /Los_ï¿½ires_30             0.01      0.01     19.01      0.01         0.01
  /Los_ï¿½ires_32            21.48     21.48     21.77     20.27        20.27
  /Los_ï¿½ires_35            21.66     21.66     23.93     20.18        20.18
  /Los_ï¿½ires_38             0.01      0.01      0.01     19.96         0.01
  Link-359                    0.01      0.01     41.70      0.01         0.01
  Link-386                    0.01      0.01      1.02      0.01         0.01
  Link-387                    0.01      0.01      3.62      0.01         0.01
  Link-388                    3.62      3.62      3.66      0.01         0.01
  Link-389                    3.66      3.66      3.71      0.01         0.01
  Link-390                    0.01      3.71      0.01      3.64         0.01
  Link-392                    2.35      2.35      3.70      0.01         0.01
  Link-393                    3.70      3.70      7.91      0.01         0.01
  Link-394                    7.91      7.91     20.00      0.01         0.01
  Link-398                    4.66      4.66     16.27      3.65         3.65
  1                           0.01      0.01      8.32      0.01         0.01
  2                           2.99      2.99     18.09      0.01         0.01
  

  Analysis begun on:  Fri Jul 12 11:15:33 2024
  Analysis ended on:  Fri Jul 12 11:15:44 2024
  Total elapsed time: 00:00:11